<?xml version="1.0" encoding="UTF-8"?>

<!-- generated on 05/08/18 12:05:27 by SUMO duarouter Version 0.32.0
<?xml version="1.0" encoding="UTF-8"?>

<configuration xmlns:xsi="http://www.w3.org/2001/XMLSchema-instance" xsi:noNamespaceSchemaLocation="http://sumo.dlr.de/xsd/duarouterConfiguration.xsd">

    <input>
        <net-file value="osm.net.xml"/>
        <route-files value="osm.passenger.trips.xml"/>
    </input>

    <output>
        <output-file value="osm.passenger.rou.xml"/>
        <alternatives-output value="osm.passenger.rou.alt.xml"/>
    </output>

    <processing>
        <ignore-errors value="true"/>
    </processing>

    <time>
        <begin value="0"/>
        <end value="3600.0"/>
    </time>

    <report>
        <no-warnings value="true"/>
        <no-step-log value="true"/>
    </report>

</configuration>
-->

<routes xmlns:xsi="http://www.w3.org/2001/XMLSchema-instance" xsi:noNamespaceSchemaLocation="http://sumo.dlr.de/xsd/routes_file.xsd">
    <vType id="passenger" speedFactor="normc(1.00,0.10,0.20,2.00)" vClass="passenger"/>
    <vehicle id="veh3" type="passenger" depart="70.36" departLane="best">
        <route edges="-320383538#1 -320383538#0 -320383536 -169008813 -41282174#1 -70084107#1 -38810418#2 -38810418#1 -38810418#0 -39607255 -39607254 -10193169#1 -10193169#0 22821903#0 22821903#1 320421205 24474165 544221393 50079829 49723043 544221396 243384948 87739644#0 87739644#1 5097986 547176084 23193073 23193072 67498200 240601720 34118005 553363398#1 553363395#1 24678824#1 166441085#1 101711025#0 101711025#1 101711025#2 101711024#0 547119380#0 547119380#1 253571605"/>
    </vehicle>
    <vehicle id="veh4" type="passenger" depart="93.81" departLane="best">
        <route edges="37853090 134366068#0 134366068#2 134366068#3 134366068#5 134366068#6 134366068#7 134366068#8 134366068#9 134366068#10 134366068#11 134366068#12 324494744#1 396653515#1 396653515#3 396653515#4 -39607255 -39607254 -10193169#1 -10193169#0 22821903#0 22821903#1 320421205 24474165 544221393 50079829 49723043 544221396 243384948 87739644#0 87739644#1 5097986 547176084 23193073 23193072 67498200 240601720 34118005 553363398#1 553363395#1 24678824#1 166441085#1 101711025#0 -101711025#0"/>
    </vehicle>
    <vehicle id="veh9" type="passenger" depart="211.07" departLane="best">
        <route edges="37853090 134366068#0 134366068#2 134366068#3 134366068#5 134366068#6 134366068#7 134366068#8 134366068#9 134366068#10 134366068#11 134366068#12 324494744#1 396653515#1 396653515#3 396653515#4 -39607255 -39607254 -10193169#1 -10193169#0 22821903#0 22821903#1 320421205 24474165 544221393 50079829 49723043 544221396 243384948 87739644#0 87739644#1 5097986 547176084 23193073 23193072 67498200 240601720 34118005"/>
    </vehicle>
    <vehicle id="veh10" type="passenger" depart="234.52" departLane="best">
        <route edges="166441085#1 -166441085#1 24411881 49723045#0 49723045#1 49723045#2 49723045#3 49723045#4 24429097 -544221393 -387025972 -320421205 -22821903#1 -22821903#0 10193169#0 10193169#1 39607254 39607255 38810418#0 38810418#1 38810418#2 24429101#0 24429101#1 70084099 70084113 70084116#0 69887229 173633732#0 173633732#1 69033008"/>
    </vehicle>
    <vehicle id="veh12" type="passenger" depart="281.42" departLane="best">
        <route edges="39607253#1 39607253#2 320383535#0 320383535#1 320383535#3 150615111 -36793459#1 -70084107#1 -38810418#2 -38810418#1 -38810418#0 -39607255 -39607254 -10193169#1 -10193169#0 22821903#0 22821903#1 320421205 24474165 544221393 50079829 49723043 544221396 243384948 87739644#0 87739644#1 5097986 547176084 23193073 23193072 67498200 240601720 34118005 553363398#1 553363395#1 24678824#1 166441085#1 101711025#0 101711025#1 101711025#2 101711024#0 547119380#0 547119380#1 253571605"/>
    </vehicle>
    <vehicle id="veh15" type="passenger" depart="351.78" departLane="best">
        <route edges="-67423980#1 -67423980#0 -242623619#0 -144114291 24464822 547176084 23193073 23193072 67498200 240601720 34118005 553363398#1 553363395#1 24678824#1 166441085#1 101711025#0 101711025#1 101711025#2 101711024#0 547119380#0 547119380#1 -547119380#1"/>
    </vehicle>
    <vehicle id="veh16" type="passenger" depart="375.23" departLane="best">
        <route edges="-38810418#1 -38810418#0 -39607255 -39607254 -10193169#1 -10193169#0 22821903#0 22821903#1 320421205 24474165 544221393 50079829 49723043 544221396 243384948 87739644#0 87739644#1 49723258 144114291 242623619#0 242623619#1 67423980#1"/>
    </vehicle>
    <vehicle id="veh19" type="passenger" depart="445.59" departLane="best">
        <route edges="37891158 134366068#6 134366068#7 134366068#8 134366068#9 134366068#10 134366068#11 134366068#12 324494744#1 396653515#1 396653515#3 396653515#4 38810418#0 38810418#1 38810418#2 24429101#0 24429101#1 70084099 70084113 70084116#0 69887229 39607253#0 39607253#1 39607253#2"/>
    </vehicle>
    <vehicle id="veh25" type="passenger" depart="586.30" departLane="best">
        <route edges="-38810418#0 -39607255 -39607254 -10193169#1 -10193169#0 22821903#0 22821903#1 320421205 24474165 544221393 50079829 49723043 544221396 243384948 87739644#0 87739644#1 5097986 547176084 23193073 23193072 67498200 240601720 34118005 553363398#1 553363395#1 24678824#1 166441085#1 101711025#0 101711025#1 101711025#2"/>
    </vehicle>
    <vehicle id="veh27" type="passenger" depart="633.20" departLane="best">
        <route edges="22604903#0 22604903#1 37853090 134366068#0 134366068#2 134366068#3 134366068#5 134366068#6 134366068#7 134366068#8 134366068#9 134366068#10 134366068#11 134366068#12 324494744#1 396653515#1 396653515#3 396653515#4 -39607255 -39607254 -10193169#1 -10193169#0 22821903#0 22821903#1 320421205 24474165 544221393 50079829 49723043 544221396 243384948 87739644#0 87739644#1 5097986 547176084"/>
    </vehicle>
    <vehicle id="veh28" type="passenger" depart="656.65" departLane="best">
        <route edges="-240601721 49723045#0 49723045#1 49723045#2 49723045#3 49723045#4 24429097 -544221393 -387025972 -320421205 -22821903#1 -22821903#0 10193169#0 10193169#1 39607254 39607255 38810418#0 38810418#1 38810418#2 43998708 41282174#0 169008813 -169008813"/>
    </vehicle>
    <vehicle id="veh30" type="passenger" depart="703.56" departLane="best">
        <route edges="320421205 -320421205 -22821903#1 -22821903#0 19307016#0 19307016#1 19307016#2 19307016#3 169835339#0"/>
    </vehicle>
    <vehicle id="veh32" type="passenger" depart="750.46" departLane="best">
        <route edges="87739644#0 -87739644#0 -243384948 -566490730 -49723043 -50079829 -544221393 -387025972 -320421205 -22821903#1 -22821903#0 19307016#0 19307016#1 19307016#2 19307016#3 169835339#0 24411893"/>
    </vehicle>
    <vehicle id="veh33" type="passenger" depart="773.91" departLane="best">
        <route edges="-101711025#2 -101711025#1 -101711025#0 -166441085#1 24411881 49723045#0 49723045#1 49723045#2 49723045#3 49723045#4 24429097 -544221393 -387025972 -320421205 -22821903#1 -22821903#0 10193169#0 10193169#1 39607254 39607255 38810418#0 38810418#1 38810418#2 43998708 41282174#0 169008813 320383536 320383538#0 320383538#1"/>
    </vehicle>
    <vehicle id="veh36" type="passenger" depart="844.27" departLane="best">
        <route edges="126104091#0 126104091#1 159943090#0 159943090#1 31864013 37853090 134366068#0 134366068#2 134366068#3 134366068#5 134366068#6 134366068#7 134366068#8 134366068#9 134366068#10 134366068#11 134366068#12 324494744#1 396653515#1 396653515#3 396653515#4 -39607255 -39607254 -10193169#1 -10193169#0 22821903#0 22821903#1 320421205 24474165 544221393 50079829 49723043 544221396 243384948 87739644#0 87739644#1 5097986 547176084 23193073 23193072 67498200"/>
    </vehicle>
    <vehicle id="veh38" type="passenger" depart="891.17" departLane="best">
        <route edges="134366068#8 134366068#9 134366068#10 134366068#11 134366068#12 324494744#1 396653515#1 396653515#3 396653515#4 -39607255"/>
    </vehicle>
    <vehicle id="veh40" type="passenger" depart="938.08" departLane="best">
        <route edges="28912704#7 37853090 134366068#0 134366068#2 134366068#3 134366068#5 134366068#6 134366068#7 134366068#8 134366068#9 134366068#10 134366068#11 134366068#12 324494744#1 396653515#1 396653515#3 396653515#4 38810418#0 38810418#1 38810418#2 24429101#0 24429101#1"/>
    </vehicle>
    <vehicle id="veh41" type="passenger" depart="961.53" departLane="best">
        <route edges="320383535#1 320383535#3 150615111 -36793459#1 -70084107#1 -38810418#2 -38810418#1 -38810418#0 -39607255 -39607254 -10193169#1 -10193169#0 19307016#0 19307016#1 19307016#2 19307016#3 169835339#0 24411893"/>
    </vehicle>
    <vehicle id="veh43" type="passenger" depart="1008.43" departLane="best">
        <route edges="-10193169#1 -10193169#0 22821903#0 22821903#1 320421205 24474165 544221393 50079829 49723043 544221396 243384948 87739644#0 87739644#1 5097986 547176084 23193073 23193072 67498200 240601720 34118005 553363398#1"/>
    </vehicle>
    <vehicle id="veh45" type="passenger" depart="1055.34" departLane="best">
        <route edges="396653515#1 396653515#3 396653515#4 -39607255 -39607254 -10193169#1 -10193169#0 22821903#0 22821903#1 320421205 24474165 544221393 50079829 49723043 544221396 243384948 87739644#0 87739644#1 49723258 144114291 242623619#0 242623619#1 67423980#1"/>
    </vehicle>
    <vehicle id="veh47" type="passenger" depart="1102.24" departLane="best">
        <route edges="134366068#11 134366068#12 324494744#1 396653515#1 396653515#3 396653515#4 -39607255 -39607254 -10193169#1 -10193169#0 22821903#0 22821903#1 320421205 24474165"/>
    </vehicle>
    <vehicle id="veh48" type="passenger" depart="1125.69" departLane="best">
        <route edges="-38810418#0 -39607255 -39607254 -10193169#1 -10193169#0 22821903#0 22821903#1 320421205 24474165 544221393 50079829 49723043 544221396 243384948 87739644#0 87739644#1 49723258"/>
    </vehicle>
    <vehicle id="veh49" type="passenger" depart="1149.14" departLane="best">
        <route edges="169008813 -169008813 -41282174#1 -70084107#1 -38810418#2 -38810418#1 -38810418#0 -39607255 -39607254 -10193169#1 -10193169#0 22821903#0 22821903#1 320421205 24474165 544221393 50079829 49723043 544221396 243384948 87739644#0 87739644#1 5097986 547176084 23193073 23193072 67498200 240601720 34118005"/>
    </vehicle>
    <vehicle id="veh52" type="passenger" depart="1219.50" departLane="best">
        <route edges="110319560 31864013 37853090 134366068#0 134366068#2 134366068#3 134366068#5 134366068#6 134366068#7 134366068#8 134366068#9 134366068#10 134366068#11 134366068#12 324494744#1 396653515#1 396653515#3 396653515#4 -39607255 -39607254 -10193169#1 -10193169#0 19307016#0 19307016#1 19307016#2 19307016#3 169835339#0 24411893"/>
    </vehicle>
    <vehicle id="veh54" type="passenger" depart="1266.40" departLane="best">
        <route edges="-544221393 544221393 50079829 49723043 544221396 243384948 87739644#0 87739644#1 5097986 547176084 23193073 23193072 67498200 240601720 34118005 553363398#1 553363395#1 24678824#1 166441085#1 101711025#0 101711025#1 101711025#2 101711024#0 547119380#0 547119380#1 253571605"/>
    </vehicle>
    <vehicle id="veh55" type="passenger" depart="1289.85" departLane="best">
        <route edges="-320383538#1 -320383538#0 -320383536 -169008813 -41282174#1 -70084107#1 -38810418#2 -38810418#1 -38810418#0 -39607255 -39607254 -10193169#1 -10193169#0 22821903#0 22821903#1 320421205 24474165 544221393 50079829 49723043 544221396 243384948 87739644#0 87739644#1 5097986 547176084 23193073 23193072 67498200 -67498200"/>
    </vehicle>
    <vehicle id="veh57" type="passenger" depart="1336.76" departLane="best">
        <route edges="-320383538#1 -320383538#0 -320383536 -169008813 -41282174#1 -70084107#1 -38810418#2 -38810418#1 -38810418#0 -39607255 -39607254 -10193169#1 -10193169#0 19307016#0 19307016#1 19307016#2 19307016#3 169835339#0 169835339#1 55092898"/>
    </vehicle>
    <vehicle id="veh60" type="passenger" depart="1407.11" departLane="best">
        <route edges="37853090 134366068#0 134366068#2 134366068#3 134366068#5 134366068#6 134366068#7 134366068#8 134366068#9 134366068#10 134366068#11 134366068#12 324494744#1 396653515#1 396653515#3 396653515#4 38810418#0 38810418#1 38810418#2 43998708 41282174#0 -41282174#1"/>
    </vehicle>
    <vehicle id="veh61" type="passenger" depart="1430.57" departLane="best">
        <route edges="-240601721 49723045#0 49723045#1 49723045#2 49723045#3 49723045#4 24429097 -544221393 -387025972 -320421205 -22821903#1 -22821903#0 10193169#0 10193169#1 39607254 39607255 38810418#0 38810418#1 38810418#2 24429101#0 24429101#1 70084099 70084113 70084116#0 69887229 173633732#0"/>
    </vehicle>
    <vehicle id="veh62" type="passenger" depart="1454.02" departLane="best">
        <route edges="101711025#2 -101711025#2 -101711025#1 -101711025#0 -166441085#1 24411881 49723045#0 49723045#1 49723045#2 49723045#3 49723045#4 24429097 -544221393 -387025972 -320421205 -22821903#1 -22821903#0 22821903#0"/>
    </vehicle>
    <vehicle id="veh65" type="passenger" depart="1524.37" departLane="best">
        <route edges="39607253#1 39607253#2 320383535#0 320383535#1 320383535#3 150615111 -36793459#1 -70084107#1 -38810418#2 -38810418#1 -38810418#0 -39607255 -39607254 -10193169#1 -10193169#0 22821903#0 22821903#1 320421205 24474165 544221393 50079829 49723043 544221396 243384948 87739644#0 87739644#1 5097986 547176084 23193073 23193072 67498200 240601720 34118005 553363398#1 553363395#1 24678824#1 166441085#1 101711025#0 101711025#1 101711025#2"/>
    </vehicle>
    <vehicle id="veh68" type="passenger" depart="1594.73" departLane="best">
        <route edges="-37853091#0 134366068#0 134366068#2 134366068#3 134366068#5 134366068#6 134366068#7 134366068#8 134366068#9 134366068#10 134366068#11 134366068#12 324494744#1 396653515#1 396653515#3 396653515#4 -39607255 -39607254 -10193169#1 -10193169#0 22821903#0 22821903#1 320421205 24474165 544221393 50079829 49723043 544221396 243384948 87739644#0 87739644#1 5097986 547176084 23193073 23193072 67498200 240601720 34118005 553363398#1 553363395#1"/>
    </vehicle>
    <vehicle id="veh73" type="passenger" depart="1711.99" departLane="best">
        <route edges="134366068#3 134366068#5 134366068#6 134366068#7 134366068#8 134366068#9 134366068#10 134366068#11 134366068#12 324494744#1 396653515#1 396653515#3 396653515#4 -39607255 -39607254 -10193169#1 -10193169#0 22821903#0 22821903#1 320421205 24474165 544221393 50079829 49723043 544221396 -566490730"/>
    </vehicle>
    <vehicle id="veh74" type="passenger" depart="1735.44" departLane="best">
        <route edges="126104091#1 159943090#0 159943090#1 31864013 37853090 134366068#0 134366068#2 134366068#3 134366068#5 134366068#6 134366068#7 134366068#8 134366068#9 134366068#10 134366068#11 134366068#12 324494744#1 396653515#1 396653515#3 396653515#4 -39607255 -39607254 -10193169#1 -10193169#0 19307016#0 19307016#1 19307016#2 19307016#3 169835339#0"/>
    </vehicle>
    <vehicle id="veh76" type="passenger" depart="1782.34" departLane="best">
        <route edges="-28912704#3 28912704#3 28912704#4 28912704#5 28912704#6 28912704#7 37853090 134366068#0 134366068#2 134366068#3 134366068#5 134366068#6 134366068#7 134366068#8 134366068#9 134366068#10 134366068#11 134366068#12 324494744#1 396653515#1 396653515#3 396653515#4 38810418#0 38810418#1 38810418#2 43998708 41282174#0 169008813 320383536 320383538#0 562310617 130627662#2"/>
    </vehicle>
    <vehicle id="veh79" type="passenger" depart="1852.70" departLane="best">
        <route edges="-144114291 24464822 547176084 23193073 23193072 67498200 240601720 34118005 553363398#1 553363395#1 24678824#1 166441085#1 101711025#0 101711025#1 101711025#2 101711024#0 547119380#0 547119380#1 253571605"/>
    </vehicle>
    <vehicle id="veh80" type="passenger" depart="1876.15" departLane="best">
        <route edges="134366068#8 134366068#9 134366068#10 134366068#11 134366068#12 324494744#1 396653515#1 396653515#3 396653515#4 -39607255 -39607254 -10193169#1 -10193169#0 22821903#0 22821903#1 320421205 24474165 544221393 50079829 49723043 544221396 243384948 87739644#0 87739644#1 5097986 547176084 23193073 23193072 67498200 240601720 34118005 553363398#1 553363395#1 24678824#1 24411881 49723045#0"/>
    </vehicle>
    <vehicle id="veh81" type="passenger" depart="1899.60" departLane="best">
        <route edges="-28912704#4 28912704#4 28912704#5 28912704#6 28912704#7 37853090 134366068#0 134366068#2 134366068#3 134366068#5 134366068#6 134366068#7 134366068#8 134366068#9 134366068#10 134366068#11 134366068#12 324494744#1 396653515#1 396653515#3 396653515#4 38810418#0 38810418#1 38810418#2 24429101#0 24429101#1 70084099 70084113 70084116#0 69887229 173633732#0 173633732#1 69033008"/>
    </vehicle>
    <vehicle id="veh85" type="passenger" depart="1993.41" departLane="best">
        <route edges="39908555#1 -39908555#1 -39908555#0 159943090#0 159943090#1 31864013 37853090 134366068#0 134366068#2 134366068#3 134366068#5 134366068#6 134366068#7 134366068#8 134366068#9 134366068#10 134366068#11 134366068#12 324494744#1 396653515#1 396653515#3 396653515#4 -39607255 -39607254 -10193169#1 -10193169#0 22821903#0 22821903#1 320421205 24474165 544221393 50079829 49723043 544221396 243384948 87739644#0 87739644#1 5097986 547176084 23193073 23193072 67498200 240601720 34118005 553363398#1 553363395#1 24678824#1 166441085#1 101711025#0 101711025#1 101711025#2"/>
    </vehicle>
    <vehicle id="veh86" type="passenger" depart="2016.86" departLane="best">
        <route edges="150615112 320383535#3 150615111 -36793459#1 -70084107#1 -38810418#2 -38810418#1 -38810418#0 -39607255 -39607254 -10193169#1 -10193169#0 22821903#0 22821903#1 320421205 24474165 544221393 50079829 49723043 544221396 243384948 87739644#0 87739644#1 49723258 144114291 242623619#0 242623619#1 67423980#1"/>
    </vehicle>
    <vehicle id="veh89" type="passenger" depart="2087.22" departLane="best">
        <route edges="24411881 49723045#0 49723045#1 49723045#2 49723045#3 49723045#4 24429097 -544221393 -387025972 -320421205 -22821903#1 -22821903#0 10193169#0 10193169#1 39607254 39607255 38810418#0 38810418#1 38810418#2 43998708 41282174#0 169008813 320383536 320383538#0 562310617 130627662#2"/>
    </vehicle>
    <vehicle id="veh92" type="passenger" depart="2157.57" departLane="best">
        <route edges="-38810418#1 -38810418#0 -39607255 -39607254 -10193169#1 -10193169#0 22821903#0 22821903#1 320421205 24474165 544221393 50079829 49723043 544221396 243384948 87739644#0 87739644#1 49723258 144114291 242623619#0 242623619#1 67423980#1"/>
    </vehicle>
    <vehicle id="veh93" type="passenger" depart="2181.03" departLane="best">
        <route edges="396653515#3 396653515#4 -39607255 -39607254 -10193169#1 -10193169#0 22821903#0 22821903#1 320421205 24474165 544221393 50079829 49723043 544221396 243384948 87739644#0 87739644#1 5097986"/>
    </vehicle>
    <vehicle id="veh95" type="passenger" depart="2227.93" departLane="best">
        <route edges="37867540#0 37867540#1 126104091#0 126104091#1 159943090#0 159943090#1 31864013 37853090 134366068#0 134366068#2 134366068#3 134366068#5 134366068#6 134366068#7 134366068#8 134366068#9 134366068#10 134366068#11 134366068#12 324494744#1 396653515#1 396653515#3 396653515#4 38810418#0 38810418#1 38810418#2 43998708 41282174#0 169008813 320383536 320383538#0 320383538#1"/>
    </vehicle>
    <vehicle id="veh96" type="passenger" depart="2251.38" departLane="best">
        <route edges="22821758 -547119380#1 -547119380#0 -101711024#1 -101711025#2 -101711025#1 -101711025#0 -166441085#1 24411881 49723045#0 49723045#1 49723045#2 49723045#3 49723045#4 24429097 -544221393 -387025972 -320421205 -22821903#1 -22821903#0 10193169#0 10193169#1 39607254 39607255 38810418#0 38810418#1 38810418#2 24429101#0 24429101#1 70084099 70084113 70084116#0"/>
    </vehicle>
    <vehicle id="veh97" type="passenger" depart="2274.83" departLane="best">
        <route edges="37853091#0 -37853091#0 134366068#0 134366068#2 134366068#3 134366068#5 134366068#6 134366068#7 134366068#8 134366068#9 134366068#10 134366068#11 134366068#12 324494744#1 396653515#1 396653515#3 396653515#4 38810418#0 38810418#1 38810418#2 43998708 41282174#0 169008813 320383536 320383538#0 562310617 130627662#2"/>
    </vehicle>
    <vehicle id="veh99" type="passenger" depart="2321.74" departLane="best">
        <route edges="28912667 37867540#0 37867540#1 126104091#0 126104091#1 159943090#0 159943090#1 31864013 37853090 134366068#0 134366068#2 134366068#3 134366068#5 134366068#6 134366068#7 134366068#8 134366068#9 134366068#10 134366068#11 134366068#12 324494744#1 396653515#1 396653515#3 396653515#4 -39607255 -39607254 -10193169#1 -10193169#0 22821903#0 22821903#1 320421205 24474165 544221393 -544221393"/>
    </vehicle>
    <vehicle id="veh103" type="passenger" depart="2415.55" departLane="best">
        <route edges="-101711024#1 -101711025#2 -101711025#1 -101711025#0 -166441085#1 24411881 49723045#0 49723045#1 49723045#2 49723045#3 49723045#4 24429097 -544221393 -387025972 -320421205 -22821903#1 -22821903#0 10193169#0 10193169#1 39607254 39607255 38810418#0 38810418#1 38810418#2 24429101#0 24429101#1 70084099 70084113 70084116#0 69887229 39607253#0 39607253#1"/>
    </vehicle>
    <vehicle id="veh105" type="passenger" depart="2462.45" departLane="best">
        <route edges="10193169#0 -10193169#0 22821903#0 22821903#1 320421205 24474165 544221393 50079829 49723043 544221396 243384948 87739644#0 87739644#1 5097986 547176084 23193073 23193072 67498200 240601720 34118005 553363398#1 553363395#1 24678824#1 166441085#1 101711025#0 101711025#1 -101711025#1"/>
    </vehicle>
    <vehicle id="veh106" type="passenger" depart="2485.90" departLane="best">
        <route edges="37867540#0 37867540#1 126104091#0 126104091#1 159943090#0 159943090#1 31864013 37853090 134366068#0 134366068#2 134366068#3 134366068#5 134366068#6 134366068#7 134366068#8 134366068#9 134366068#10 134366068#11 134366068#12 324494744#1 396653515#1 396653515#3 396653515#4 -39607255 -39607254 -10193169#1 -10193169#0 22821903#0 22821903#1 320421205 24474165 544221393 50079829 49723043 544221396 243384948 87739644#0 87739644#1 5097986 547176084 23193073 23193072 67498200 240601720 34118005 553363398#1 553363395#1 24678824#1 166441085#1 101711025#0 101711025#1 101711025#2 101711024#0 547119380#0 547119380#1 253571605"/>
    </vehicle>
    <vehicle id="veh107" type="passenger" depart="2509.35" departLane="best">
        <route edges="324494744#1 396653515#1 396653515#3 396653515#4 -39607255 -39607254 -10193169#1 -10193169#0 22821903#0 22821903#1 320421205 24474165 544221393 50079829 49723043 544221396 243384948 87739644#0 87739644#1 5097986 547176084 23193073 23193072 67498200 240601720 34118005 553363398#1 553363395#1 24678824#1 24411881 49723045#0 49723045#1 49723045#2"/>
    </vehicle>
    <vehicle id="veh108" type="passenger" depart="2532.81" departLane="best">
        <route edges="43998708 -70084107#1 -38810418#2 -38810418#1 -38810418#0 -39607255 -39607254 -10193169#1 -10193169#0 22821903#0 22821903#1 320421205 24474165 544221393 50079829 49723043 544221396 243384948 87739644#0 87739644#1 5097986 547176084 23193073 23193072 67498200 240601720 34118005 553363398#1 553363395#1 24678824#1 166441085#1 101711025#0 101711025#1 101711025#2 101711024#0 547119380#0 547119380#1 -547119380#1"/>
    </vehicle>
    <vehicle id="veh110" type="passenger" depart="2579.71" departLane="best">
        <route edges="-28912704#3 28912704#3 28912704#4 28912704#5 28912704#6 28912704#7 37853090 134366068#0 134366068#2 134366068#3 134366068#5 134366068#6 134366068#7 134366068#8 134366068#9 134366068#10 134366068#11 134366068#12 324494744#1 396653515#1 396653515#3 396653515#4 38810418#0 38810418#1 38810418#2 43998708 41282174#0 169008813 320383536 320383538#0 562310617"/>
    </vehicle>
    <vehicle id="veh111" type="passenger" depart="2603.16" departLane="best">
        <route edges="37853091#0 -37853091#0 134366068#0 134366068#2 134366068#3 134366068#5 134366068#6 134366068#7 134366068#8 134366068#9 134366068#10 134366068#11 134366068#12 324494744#1 396653515#1 396653515#3 396653515#4 -39607255 -39607254 -10193169#1 -10193169#0 22821903#0 22821903#1 320421205 24474165 544221393"/>
    </vehicle>
    <vehicle id="veh115" type="passenger" depart="2696.97" departLane="best">
        <route edges="39607255 -39607255 -39607254 -10193169#1 -10193169#0 22821903#0 22821903#1 320421205 24474165 544221393 50079829 49723043 544221396 243384948 87739644#0 87739644#1 5097986 547176084 23193073 23193072 67498200 240601720 34118005 553363398#1 553363395#1 24678824#1 24411881 49723045#0 49723045#1"/>
    </vehicle>
    <vehicle id="veh117" type="passenger" depart="2743.87" departLane="best">
        <route edges="130627662#0 130627662#1 130627662#2"/>
    </vehicle>
    <vehicle id="veh122" type="passenger" depart="2861.13" departLane="best">
        <route edges="240601720 34118005 553363398#1 553363395#1 24678824#1 24411881 49723045#0 49723045#1 49723045#2 49723045#3 49723045#4 24429097 -544221393 -387025972 -320421205 -22821903#1 -22821903#0 10193169#0 10193169#1 39607254 39607255 38810418#0 38810418#1 38810418#2 24429101#0 24429101#1 70084099 320383535#3 150615111"/>
    </vehicle>
    <vehicle id="veh124" type="passenger" depart="2908.04" departLane="best">
        <route edges="67498200 -67498200 -23193072 240601723 240601722#0 240601722#1 -243384948 -566490730 -49723043 -50079829 -544221393 -387025972 -320421205 -22821903#1 -22821903#0 10193169#0 10193169#1 39607254 39607255 -39607255"/>
    </vehicle>
    <vehicle id="veh127" type="passenger" depart="2978.39" departLane="best">
        <route edges="28912704#0 28912704#1 28912704#2 28912704#3 28912704#4 28912704#5 28912704#6 28912704#7 22604721#0 22604721#1 22604721#2 132949279"/>
    </vehicle>
    <vehicle id="veh128" type="passenger" depart="3001.84" departLane="best">
        <route edges="22821758 -547119380#1 -547119380#0 -101711024#1 -101711025#2 -101711025#1 -101711025#0 -166441085#1 24411881"/>
    </vehicle>
    <vehicle id="veh130" type="passenger" depart="3048.75" departLane="best">
        <route edges="-37891158 37891158 134366068#6 134366068#7 134366068#8 134366068#9 134366068#10 134366068#11 134366068#12 324494744#1 396653515#1 396653515#3 396653515#4 38810418#0 38810418#1 38810418#2 43998708 41282174#0 169008813 320383536 320383538#0 320383538#1"/>
    </vehicle>
    <vehicle id="veh131" type="passenger" depart="3072.20" departLane="best">
        <route edges="-67423980#1 -67423980#0 -242623619#0 -144114291 24464822 547176084 547176086 240601722#0 240601722#1 -243384948 -566490730 -49723043 -50079829 -544221393 -387025972 -320421205 -22821903#1 -22821903#0 10193169#0 10193169#1 39607254 39607255 38810418#0 38810418#1 38810418#2 24429101#0 24429101#1 70084099 70084113 70084116#0 69887229 173633732#0 173633732#1 -24465067"/>
    </vehicle>
    <vehicle id="veh134" type="passenger" depart="3142.55" departLane="best">
        <route edges="28912704#0 28912704#1 28912704#2 28912704#3 28912704#4 28912704#5 28912704#6 28912704#7 37853090 134366068#0 134366068#2 134366068#3 134366068#5 134366068#6 134366068#7 134366068#8 134366068#9 134366068#10 134366068#11 134366068#12 324494744#1 396653515#1 396653515#3 396653515#4 38810418#0 38810418#1 38810418#2 43998708 41282174#0 169008813 320383536 320383538#0 562310617 130627662#2"/>
    </vehicle>
    <vehicle id="veh136" type="passenger" depart="3189.46" departLane="best">
        <route edges="-87739644#1 -87739644#0 -243384948 -566490730 -49723043 -50079829 -544221393 -387025972 -320421205 -22821903#1 -22821903#0 10193169#0 10193169#1 39607254 39607255 38810418#0 38810418#1 38810418#2 43998708 41282174#0 169008813 320383536 320383538#0 562310617 130627662#2"/>
    </vehicle>
    <vehicle id="veh139" type="passenger" depart="3259.81" departLane="best">
        <route edges="-39908555#2 -39908555#1 -39908555#0 159943090#0 159943090#1 31864013 37853090 134366068#0 134366068#2 134366068#3 134366068#5 134366068#6 134366068#7 134366068#8 134366068#9 134366068#10 134366068#11 134366068#12 324494744#1 396653515#1 396653515#3 396653515#4 -39607255 -39607254 -10193169#1 -10193169#0 22821903#0 22821903#1 320421205 24474165"/>
    </vehicle>
    <vehicle id="veh141" type="passenger" depart="3306.72" departLane="best">
        <route edges="10193169#1 -10193169#1 -10193169#0 22821903#0 22821903#1 320421205 24474165 544221393 50079829 49723043 544221396 243384948 87739644#0 87739644#1 5097986 547176084 23193073 23193072 67498200 240601720 34118005 553363398#1 553363395#1 24678824#1 166441085#1 101711025#0 101711025#1 101711025#2 101711024#0 547119380#0 547119380#1 253571605"/>
    </vehicle>
    <vehicle id="veh142" type="passenger" depart="3330.17" departLane="best">
        <route edges="240601722#1 -243384948 -566490730 -49723043 -50079829 -544221393 -387025972 -320421205 -22821903#1 -22821903#0 22821903#0"/>
    </vehicle>
    <vehicle id="veh144" type="passenger" depart="3377.07" departLane="best">
        <route edges="134366068#10 134366068#11 134366068#12 324494744#1 396653515#1 396653515#3 396653515#4 -39607255 -39607254 -10193169#1 -10193169#0 22821903#0 22821903#1 320421205 24474165 544221393 50079829 49723043 544221396 243384948 87739644#0 87739644#1 5097986 547176084 547176086"/>
    </vehicle>
    <vehicle id="veh145" type="passenger" depart="3400.53" departLane="best">
        <route edges="-240601721 49723045#0 49723045#1 49723045#2 49723045#3 49723045#4 24429097 -544221393 -387025972 -320421205 -22821903#1 -22821903#0 19307016#0 19307016#1 19307016#2 19307016#3 169835339#0 24411893"/>
    </vehicle>
    <vehicle id="veh147" type="passenger" depart="3447.43" departLane="best">