<?xml version="1.0" encoding="UTF-8"?>

<!-- generated on 05/08/18 12:05:27 by SUMO polyconvert Version 0.32.0
<?xml version="1.0" encoding="UTF-8"?>

<configuration xmlns:xsi="http://www.w3.org/2001/XMLSchema-instance" xsi:noNamespaceSchemaLocation="http://sumo.dlr.de/xsd/polyconvertConfiguration.xsd">

    <input>
        <net-file value="C:\Users\Michel\Sumo\2018-05-08-12-05-23\osm.net.xml"/>
        <osm-files value="osm_bbox.osm.xml"/>
        <osm.keep-full-type value="true"/>
        <type-file value="C:\Program%20Files%20(x86)\DLR\Sumo\data\typemap\osmPolyconvert.typ.xml"/>
    </input>

    <output>
        <output-file value="C:\Users\Michel\Sumo\2018-05-08-12-05-23\osm.poly.xml"/>
    </output>

    <processing>
        <poi-layer-offset value="5"/>
    </processing>

    <report>
        <verbose value="true"/>
    </report>

</configuration>
-->

<additional xmlns:xsi="http://www.w3.org/2001/XMLSchema-instance" xsi:noNamespaceSchemaLocation="http://sumo.dlr.de/xsd/additional_file.xsd">
    <location netOffset="-353027.49,-5295485.24" convBoundary="-20627.28,-12237.53,3570.05,46035.09" origBoundary="12.748460,47.686673,13.089081,48.208219" projParameter="+proj=utm +zone=33 +ellps=WGS84 +datum=WGS84 +units=m +no_defs"/>

    <poly id="100420649" type="building.yes" color="255,230,230" fill="1" layer="-1.00" shape="405.87,280.02 412.21,286.55 416.30,282.61 409.95,276.08 405.87,280.02"/>
    <poly id="100420649#1" type="tourism.artwork" color="207,245,201" fill="1" layer="-2.00" shape="405.87,280.02 412.21,286.55 416.30,282.61 409.95,276.08 405.87,280.02"/>
    <poly id="100437127" type="amenity.place_of_worship" color="237,199,199" fill="1" layer="-1.00" shape="458.54,350.26 454.75,340.63 455.33,339.92 448.54,323.76 447.48,323.59 447.32,322.58 443.37,313.95 443.71,313.80 443.50,312.87 443.11,312.07 442.17,310.69 441.58,310.71 437.30,300.51 436.25,298.16 426.80,302.47 424.23,296.02 421.23,297.17 412.69,300.83 415.41,307.17 405.67,311.27 411.06,323.86 410.62,324.12 416.12,337.01 415.33,337.57 422.00,353.34 422.92,353.52 427.43,363.89 423.45,365.48 425.43,370.40 426.06,371.96 426.61,373.34 430.51,371.78 434.80,370.07 433.87,367.46 435.27,366.93 436.90,368.19 438.34,369.35 440.69,370.59 442.59,370.74 443.22,371.53 445.82,371.06 445.80,370.26 448.69,369.49 450.08,368.55 450.88,368.56 453.06,367.08 452.69,366.49 454.10,364.89 454.56,362.88 454.94,362.07 455.16,360.96 455.12,359.46 455.34,358.20 456.73,357.70 457.67,360.11 460.64,358.96 462.93,358.07 464.85,357.34 465.96,356.91 462.74,348.63 458.54,350.26"/>
    <poly id="100437127#1" type="building.church" color="255,230,230" fill="1" layer="-1.00" shape="458.54,350.26 454.75,340.63 455.33,339.92 448.54,323.76 447.48,323.59 447.32,322.58 443.37,313.95 443.71,313.80 443.50,312.87 443.11,312.07 442.17,310.69 441.58,310.71 437.30,300.51 436.25,298.16 426.80,302.47 424.23,296.02 421.23,297.17 412.69,300.83 415.41,307.17 405.67,311.27 411.06,323.86 410.62,324.12 416.12,337.01 415.33,337.57 422.00,353.34 422.92,353.52 427.43,363.89 423.45,365.48 425.43,370.40 426.06,371.96 426.61,373.34 430.51,371.78 434.80,370.07 433.87,367.46 435.27,366.93 436.90,368.19 438.34,369.35 440.69,370.59 442.59,370.74 443.22,371.53 445.82,371.06 445.80,370.26 448.69,369.49 450.08,368.55 450.88,368.56 453.06,367.08 452.69,366.49 454.10,364.89 454.56,362.88 454.94,362.07 455.16,360.96 455.12,359.46 455.34,358.20 456.73,357.70 457.67,360.11 460.64,358.96 462.93,358.07 464.85,357.34 465.96,356.91 462.74,348.63 458.54,350.26"/>
    <poly id="100437129" type="amenity.place_of_worship" color="237,199,199" fill="1" layer="-1.00" shape="281.36,359.97 299.33,377.41 287.80,389.22 269.82,371.77 281.36,359.97"/>
    <poly id="100437129#1" type="building.church" color="255,230,230" fill="1" layer="-1.00" shape="281.36,359.97 299.33,377.41 287.80,389.22 269.82,371.77 281.36,359.97"/>
    <poly id="100464571" type="historic.citywalls" color="128,255,128" fill="0" layer="-1.00" shape="147.45,435.17 149.96,441.18 151.41,443.51 153.10,446.10"/>
    <poly id="100464572" type="historic.citywalls" color="128,255,128" fill="0" layer="-1.00" shape="138.39,433.79 135.07,437.50 137.21,443.77 144.08,445.71 151.41,443.51"/>
    <poly id="101182111" type="natural.wood" color="140,196,107" fill="1" layer="-4.00" shape="110.04,241.72 118.95,241.18 128.87,238.43 135.60,232.77 134.96,220.74 139.50,204.22 145.17,200.24 151.77,193.41 155.55,184.69 157.42,179.52 144.73,176.16 148.29,158.16 170.31,56.22 160.51,0.32 140.50,-22.78 157.96,-117.47 144.54,-132.16 109.17,-201.42 88.86,-223.23 81.61,-227.38 45.36,-256.93 83.64,-290.47 112.85,-340.59 120.15,-334.41 148.52,-359.51 169.58,-343.93 234.78,-338.90 237.46,-361.36 246.00,-378.30 273.70,-385.42 291.62,-380.75 307.66,-373.88 316.92,-372.41 349.16,-377.71 374.67,-369.81 381.16,-359.07 373.67,-349.69 364.83,-331.40 363.03,-319.86 364.91,-305.40 402.10,-251.57 420.59,-209.57 446.98,-225.62 448.37,-217.76 450.96,-210.79 453.57,-203.30 457.73,-192.04 466.99,-187.00 472.72,-183.98 475.38,-177.99 478.39,-168.21 479.18,-163.94 483.18,-155.98 488.45,-151.82 494.15,-151.27 503.42,-152.20 515.13,-152.32 523.91,-152.72 530.77,-153.57 544.50,-155.46 624.68,-158.91 638.59,-152.05 637.01,-130.40 632.80,-102.97 639.00,-99.71 635.30,-93.25 631.17,-86.06 631.55,-85.79 619.83,-66.00 605.80,-49.49 570.11,3.18 562.65,25.32 571.08,32.81 543.31,54.26 529.23,64.78 514.70,77.47 510.38,81.67 484.47,103.41 472.27,112.36 458.61,118.07 458.01,108.17 458.18,106.73 459.66,106.51 464.41,102.78 472.11,102.60 477.46,95.86 479.14,89.95 487.50,81.94 498.27,80.76 498.63,76.39 496.60,71.40 490.62,62.70 489.57,55.43 490.46,49.67 494.07,40.71 497.15,31.43 501.22,20.21 507.71,8.23 507.85,-0.28 509.83,-16.27 515.44,-14.26 517.24,5.91 520.80,9.11 527.35,6.00 526.64,-1.46 531.03,-7.13 536.13,-5.00 541.82,-0.97 546.75,-5.43 546.09,-10.98 551.78,-20.33 558.61,-18.95 559.31,-12.01 562.66,-3.23 567.33,-4.92 572.34,-13.39 573.38,-20.88 572.88,-33.37 571.64,-41.34 565.53,-48.30 555.44,-55.00 560.58,-65.38 553.37,-74.41 540.96,-76.17 534.93,-73.25 529.29,-69.10 519.29,-64.86 503.46,-70.36 496.76,-73.50 497.56,-86.46 488.63,-84.84 479.08,-83.56 459.88,-81.24 458.76,-81.46 456.69,-90.14 452.08,-101.69 448.88,-111.44 445.63,-118.24 440.17,-129.40 433.72,-130.96 427.76,-132.65 422.01,-131.52 418.82,-126.04 414.64,-120.65 403.13,-117.78 390.56,-115.87 385.69,-112.51 381.74,-106.96 377.22,-103.44 370.65,-99.87 365.48,-102.13 359.98,-110.50 357.50,-107.04 355.80,-100.01 358.30,-95.48 364.71,-91.73 360.61,-85.50 358.06,-78.12 366.36,-67.27 369.01,-63.94 374.57,-59.82 377.62,-53.94 371.80,-47.84 365.60,-43.25 361.34,-36.00 355.03,-22.57 351.66,-14.31 343.15,0.36 333.96,14.55 327.30,21.36 330.26,30.47 335.02,36.48 340.66,43.49 345.61,50.33 341.05,58.79 330.18,67.91 326.43,78.38 323.33,84.59 319.44,93.11 324.62,102.13 328.49,107.33 326.56,112.07 318.71,116.59 311.85,122.18 312.73,128.42 318.75,132.72 320.85,136.51 319.62,141.56 313.99,148.68 313.59,156.43 316.23,159.51 322.62,159.19 326.32,163.51 328.41,165.66 330.46,166.88 337.92,163.50 341.19,160.14 340.52,165.97 318.68,191.80 307.05,207.89 310.89,211.38 292.08,235.22 294.58,236.65 286.79,246.65 279.84,244.25 267.93,259.36 252.48,274.96 247.33,282.44 237.05,299.34 234.91,309.57 240.71,315.68 231.16,324.00 222.28,315.06 221.98,314.91 212.93,314.90 211.10,317.35 206.50,322.21 202.27,326.89 203.41,328.37 190.17,355.30 189.26,368.81 195.21,373.32 188.80,387.15 181.96,399.93 172.74,421.40 165.30,438.73 160.05,446.96 153.07,463.19 146.00,479.69 139.02,495.23 136.17,501.63 133.70,507.10 131.85,511.80 129.94,521.96 127.27,532.31 125.62,541.46 125.36,549.56 124.47,557.07 122.38,564.41 121.39,568.19 117.81,579.12 116.60,582.38 114.92,587.62 111.24,596.92 105.03,610.22 99.97,623.67 96.29,633.68 90.71,648.54 87.23,657.88 84.36,664.66 81.07,674.53 69.58,704.93 65.80,715.49 62.37,728.63 65.00,732.32 62.98,742.66 57.61,756.53 53.68,767.46 50.32,780.65 50.54,786.40 56.89,793.44 57.43,794.16 57.99,797.64 51.95,812.94 50.33,814.15 36.00,835.69 17.28,853.58 -6.16,893.16 -15.63,902.60 -40.14,923.24 -42.13,924.27 -39.86,944.71 -56.24,963.85 -40.95,976.49 -56.75,1025.08 -70.99,1040.63 -102.57,1053.00 -112.01,1039.56 -115.43,1036.66 -121.48,1031.89 -127.90,1049.46 -139.43,1046.53 -141.16,1042.80 -142.62,1039.83 -152.16,1047.92 -156.58,1050.34 -162.60,1052.22 -166.99,1052.22 -175.68,1049.98 -181.50,1045.44 -191.34,1037.40 -210.12,1018.99 -213.86,1011.72 -219.24,998.83 -246.20,955.44 -243.24,952.50 -257.95,933.65 -260.75,934.95 -262.82,934.58 -264.71,933.70 -266.22,931.60 -267.21,929.17 -266.06,926.51 -264.82,924.95 -299.91,880.23 -312.77,881.57 -338.68,858.18 -359.36,840.04 -361.66,840.90 -365.88,837.83 -366.90,827.95 -372.46,818.97 -370.84,707.84 -373.43,702.97 -387.99,702.05 -387.10,682.78 -367.22,683.53 -367.38,643.89 -356.51,613.76 -355.54,567.74 -349.92,552.81 -337.51,507.80 -331.18,465.52 -311.63,398.59 -290.87,408.15 -277.80,391.82 -241.88,348.27 -200.17,344.67 -156.94,357.45 -98.41,330.02 -87.19,336.50 -60.04,337.10 -13.13,335.61 4.49,321.63 19.91,314.92 32.48,307.95 36.14,292.77 46.67,286.02 49.82,279.34 57.06,275.76 67.95,271.83 86.12,266.79 91.54,263.36 91.85,253.01 102.85,249.32 110.04,241.72"/>
    <poly id="101705887" type="building.yes" color="255,230,230" fill="1" layer="-1.00" shape="561.96,443.40 562.54,444.89 569.24,461.98 571.32,460.88 571.62,460.80 571.09,458.71 564.76,441.72 561.96,443.40"/>
    <poly id="101771251" type="landuse.grass" color="194,194,130" fill="1" layer="-3.00" shape="126.21,766.87 118.38,777.36 102.70,801.52 79.47,841.70 59.10,881.87 40.83,921.76 6.42,996.52 15.00,998.92 34.60,956.37 75.88,879.08 98.40,835.89 134.74,779.01 142.94,767.15 147.97,761.77 148.85,758.10 148.95,753.65 151.05,750.05 141.97,746.77 126.21,766.87"/>
    <poly id="101788916" type="building.yes" color="255,230,230" fill="1" layer="-1.00" shape="566.77,371.56 566.23,370.21 575.97,364.87 576.27,365.81 576.81,366.87 566.77,371.56"/>
    <poly id="101788919" type="building.yes" color="255,230,230" fill="1" layer="-1.00" shape="529.27,363.83 530.22,359.83 544.98,353.30 546.34,355.23 529.27,363.83"/>
    <poly id="10192072" type="landuse.forest" color="140,196,107" fill="1" layer="-3.00" shape="644.99,640.61 660.04,613.27 665.09,606.55 655.81,599.29 672.89,587.79 687.22,574.32 693.59,572.09 698.61,564.92 698.70,565.79 713.12,562.57 716.12,560.80 727.62,578.94 764.68,588.30 768.41,588.06 828.04,569.31 832.19,568.51 937.45,566.17 973.46,549.68 1103.82,484.90 1158.94,462.23 1169.65,452.57 1176.09,449.38 1181.79,451.59 1191.06,456.18 1192.09,463.39 1273.04,475.55 1296.27,484.75 1311.05,507.86 1363.23,506.96 1409.78,492.40 1415.15,486.10 1411.65,454.15 1442.95,451.96 1445.83,481.92 1451.77,485.34 1589.14,458.23 1613.61,458.68 1636.01,464.65 1702.29,520.96 1756.09,591.54 1767.23,634.73 1784.12,680.52 1828.42,756.54 1939.47,881.18 1990.89,811.89 2044.65,816.51 2052.78,806.93 2143.06,849.08 2164.98,939.64 2150.81,980.52 2127.79,983.89 2112.47,1065.36 2119.99,1119.26 2146.34,1174.49 2159.70,1214.23 2156.82,1225.11 2152.98,1235.13 2136.65,1253.97 2062.77,1273.04 1976.56,1263.20 1933.38,1251.45 1894.89,1234.75 1887.08,1229.98 1893.96,1214.84 1876.29,1211.15 1848.57,1204.46 1853.45,1190.20 1836.93,1186.57 1798.27,1182.95 1751.79,1170.55 1612.13,1163.89 1560.51,1158.28 1494.03,1149.74 1337.91,1104.16 1329.82,1101.71 1318.83,1085.27 1231.18,1045.84 1113.68,954.08 978.42,895.79 974.20,893.93 961.47,889.09 955.28,888.51 939.78,883.37 929.12,877.51 913.43,868.62 890.97,859.10 879.89,868.94 875.97,870.82 860.38,866.08 853.68,867.62 841.86,864.11 829.89,861.32 819.49,855.29 815.21,852.63 812.10,854.46 795.64,846.56 793.52,841.46 796.35,835.85 791.96,826.88 793.95,816.56 775.20,792.63 758.07,777.77 746.64,764.41 735.23,758.26 714.99,740.89 688.55,726.77 695.34,707.17 689.22,698.49 677.84,690.04 677.54,672.28 668.77,661.28 663.38,657.91 644.99,640.61"/>
    <poly id="102155623" type="building.yes" color="255,230,230" fill="1" layer="-1.00" shape="579.97,318.00 581.99,317.90 583.91,316.23 584.08,314.16 583.82,313.89 586.18,311.74 581.10,306.05 572.53,314.18 577.78,319.38 579.63,317.71 579.97,318.00"/>
    <poly id="102156741" type="tourism.artwork" color="207,245,201" fill="1" layer="-2.00" shape="780.69,310.34 781.22,301.95 789.61,302.48 789.08,310.86 780.69,310.34"/>
    <poly id="110408006" type="landuse.village_green" color="242,242,204" fill="1" layer="-3.00" shape="1296.22,306.29 1295.32,308.07 1294.61,310.09 1294.17,312.27 1294.05,314.32 1294.24,316.70 1294.70,318.76 1295.34,320.51 1296.02,321.88 1296.98,323.41 1298.18,324.89 1299.49,326.18 1300.79,327.19 1302.40,328.17 1304.21,329.01 1306.25,329.63 1308.56,330.00 1310.86,330.03 1313.01,329.74 1315.36,329.08 1317.02,328.37 1319.28,326.98 1320.90,325.63 1322.34,324.04 1323.56,322.26 1324.45,320.50 1325.13,318.60 1325.57,316.56 1325.74,314.15 1325.56,311.86 1324.99,309.46 1324.11,307.27 1322.86,305.18 1321.27,303.26 1319.56,301.74 1317.42,300.35 1315.29,299.40 1312.80,298.72 1310.51,298.47 1307.75,298.60 1305.41,299.11 1303.23,299.93 1301.35,300.95 1299.82,302.06 1298.51,303.27 1297.29,304.68 1296.22,306.29"/>
    <poly id="112513322" type="building.tower" color="255,230,230" fill="1" layer="-1.00" shape="731.25,306.43 730.84,303.15 729.21,303.36 727.64,303.55 728.04,306.82 731.25,306.43"/>
    <poly id="115758030" type="natural.mountain_range" color="140,196,107" fill="0" layer="-4.00" shape="2745.77,-2828.57 2772.81,-2487.84 2864.87,-1634.71 2863.19,-1553.14 2857.84,-1496.81 2844.86,-1444.57 2835.01,-1410.32 2823.24,-1377.67 2803.09,-1331.02 2789.15,-1302.72 2770.73,-1271.53 2743.80,-1233.09 2683.46,-1150.50 2340.45,-712.27 2318.84,-691.13 2254.53,-628.25 1517.11,2.75 1403.63,91.65 1287.90,178.47 1167.48,261.13 1036.83,335.77 556.86,542.97 429.76,598.55 298.47,679.06 239.67,727.05 186.40,781.02 142.74,844.92 105.01,912.72 58.11,1034.70 21.29,1156.63 -13.77,1291.69 -27.11,1393.79"/>
    <poly id="115758030#1" type="waterway.river" color="181,209,209" fill="0" layer="-4.00" shape="2745.77,-2828.57 2772.81,-2487.84 2864.87,-1634.71 2863.19,-1553.14 2857.84,-1496.81 2844.86,-1444.57 2835.01,-1410.32 2823.24,-1377.67 2803.09,-1331.02 2789.15,-1302.72 2770.73,-1271.53 2743.80,-1233.09 2683.46,-1150.50 2340.45,-712.27 2318.84,-691.13 2254.53,-628.25 1517.11,2.75 1403.63,91.65 1287.90,178.47 1167.48,261.13 1036.83,335.77 556.86,542.97 429.76,598.55 298.47,679.06 239.67,727.05 186.40,781.02 142.74,844.92 105.01,912.72 58.11,1034.70 21.29,1156.63 -13.77,1291.69 -27.11,1393.79"/>
    <poly id="130291654" type="amenity.parking" color="184,184,179" fill="1" layer="-1.00" shape="1361.47,368.58 1383.63,402.09 1381.64,403.43 1383.38,405.86 1385.64,409.02 1398.04,400.69 1389.62,387.64 1393.21,385.00 1372.50,353.12 1362.24,359.32 1365.46,364.00 1363.53,365.35 1364.39,366.65 1361.47,368.58"/>
    <poly id="130291657" type="amenity.bicycle_parking" color="237,199,199" fill="1" layer="-1.00" shape="1337.96,335.36 1345.88,347.26 1348.54,345.50 1340.63,333.61 1337.96,335.36"/>
    <poly id="130291661" type="amenity.parking" color="184,184,179" fill="1" layer="-1.00" shape="1340.63,333.61 1351.60,326.35 1363.98,344.95 1350.35,353.97 1348.25,350.83 1345.88,347.26 1348.54,345.50 1340.63,333.61"/>
    <poly id="132433098" type="building.yes" color="255,230,230" fill="1" layer="-1.00" shape="1327.32,607.39 1326.65,609.17 1321.72,607.30 1325.52,597.33 1329.00,598.65 1328.76,599.25 1329.48,599.51 1329.19,600.29 1329.91,600.57 1327.32,607.39"/>
    <poly id="132575728" type="building.yes" color="255,230,230" fill="1" layer="-1.00" shape="1297.04,258.49 1293.38,260.74 1298.32,268.71 1302.48,275.44 1310.98,270.20 1310.27,269.06 1317.36,264.70 1309.52,252.05 1307.74,253.15 1306.25,250.77 1301.74,253.55 1302.14,254.19 1299.50,255.82 1296.51,257.65 1297.04,258.49"/>
    <poly id="134459256" type="waterway.stream" color="181,209,209" fill="0" layer="-4.00" shape="-65.41,288.39 -47.38,291.77 181.18,518.80 176.30,532.27 160.45,558.43"/>
    <poly id="134459258" type="waterway.canal" color="181,209,209" fill="0" layer="-4.00" shape="702.20,135.97 781.90,138.96 795.45,141.00 808.14,149.02 831.43,157.35 847.10,160.89 883.36,162.91 895.42,163.01 912.14,162.54 923.54,163.26 934.08,171.84 954.31,219.53 929.47,247.55 927.18,250.94 927.46,255.68 958.27,310.09 955.74,326.73"/>
    <poly id="134459261" type="waterway.stream" color="181,209,209" fill="0" layer="-4.00" shape="162.53,623.53 159.06,642.75 152.33,667.76 152.80,701.73 150.35,742.11 151.05,750.05"/>
    <poly id="134579947" type="building.yes" color="255,230,230" fill="1" layer="-1.00" shape="905.44,509.67 914.68,529.13 906.89,532.37 898.00,513.25 905.44,509.67"/>
    <poly id="134579948" type="building.yes" color="255,230,230" fill="1" layer="-1.00" shape="968.87,519.47 965.41,511.78 950.50,518.43 953.95,526.11 968.87,519.47"/>
    <poly id="134579949" type="building.yes" color="255,230,230" fill="1" layer="-1.00" shape="940.83,538.03 963.47,528.85 966.19,535.86 951.79,544.56 942.02,544.96 940.83,538.03"/>
    <poly id="134579950" type="building.yes" color="255,230,230" fill="1" layer="-1.00" shape="1037.06,511.58 1043.39,507.51 1038.28,498.85 1031.97,503.11 1037.06,511.58"/>
    <poly id="134579951" type="building.yes" color="255,230,230" fill="1" layer="-1.00" shape="1064.09,482.13 1053.99,488.47 1059.04,496.49 1059.98,497.78 1069.06,492.43 1064.09,482.13"/>
    <poly id="134579952" type="building.yes" color="255,230,230" fill="1" layer="-1.00" shape="1109.09,453.00 1104.32,433.46 1092.03,434.58 1095.41,458.65 1109.09,453.00"/>
    <poly id="134579953" type="building.yes" color="255,230,230" fill="1" layer="-1.00" shape="1053.99,488.47 1045.39,494.40 1050.39,502.51 1059.04,496.49 1053.99,488.47"/>
    <poly id="134579954" type="building.yes" color="255,230,230" fill="1" layer="-1.00" shape="1013.88,513.59 981.71,528.08 985.51,537.88 1003.99,529.76 1002.54,525.88 1016.44,519.58 1013.88,513.59"/>
    <poly id="134579955" type="building.yes" color="255,230,230" fill="1" layer="-1.00" shape="954.34,528.81 951.19,521.42 937.82,527.09 940.97,534.47 947.69,531.62 954.34,528.81"/>
    <poly id="134579956" type="building.yes" color="255,230,230" fill="1" layer="-1.00" shape="1093.79,459.87 1089.15,451.02 1086.21,452.56 1083.75,447.89 1076.02,451.92 1078.79,457.20 1076.49,458.40 1080.81,466.63 1093.79,459.87"/>
    <poly id="134579957" type="building.yes" color="255,230,230" fill="1" layer="-1.00" shape="1045.39,494.40 1038.28,498.85 1043.39,507.51 1044.42,509.44 1051.77,504.74 1050.39,502.51 1045.39,494.40"/>
    <poly id="134579958" type="building.yes" color="255,230,230" fill="1" layer="-1.00" shape="1077.21,468.17 1068.12,453.03 1004.05,483.88 1013.84,508.29 1042.88,489.86 1047.37,485.87 1045.93,482.68 1051.47,479.36 1055.60,477.01 1057.44,479.92 1068.60,473.22 1077.21,468.17"/>
    <poly id="134579959" type="building.yes" color="255,230,230" fill="1" layer="-1.00" shape="893.69,535.66 898.61,535.76 906.40,532.85 908.81,534.31 911.89,540.80 900.20,546.87 894.39,547.86 893.69,535.66"/>
    <poly id="134579962" type="building.yes" color="255,230,230" fill="1" layer="-1.00" shape="933.45,522.92 915.62,528.31 916.52,531.94 908.81,534.31 911.89,540.80 918.19,538.69 937.21,535.64 933.45,522.92"/>
    <poly id="134708542" type="building.yes" color="255,230,230" fill="1" layer="-1.00" shape="933.08,557.89 935.26,557.73 934.77,550.86 937.17,550.67 936.38,539.19 921.85,540.95 922.85,551.77 928.53,551.38 929.00,558.08 929.11,558.08 929.35,561.50 933.31,561.22 933.08,557.89"/>
    <poly id="134708543" type="building.yes" color="255,230,230" fill="1" layer="-1.00" shape="784.36,555.29 772.23,559.11 775.10,571.08 787.13,569.06 784.36,555.29"/>
    <poly id="134708544" type="building.yes" color="255,230,230" fill="1" layer="-1.00" shape="772.23,559.11 762.76,561.49 764.68,567.08 766.39,566.89 766.51,568.80 775.10,571.08 772.23,559.11"/>
    <poly id="134708545" type="building.yes" color="255,230,230" fill="1" layer="-1.00" shape="796.63,559.35 797.88,566.75 790.29,569.87 787.52,570.45 787.13,569.06 784.36,555.29 784.27,554.34 787.75,553.34 787.58,552.56 795.35,551.59 796.63,559.35"/>
    <poly id="135592024" type="waterway.stream" color="181,209,209" fill="0" layer="-4.00" shape="160.45,558.43 157.23,564.77"/>
    <poly id="135592030" type="waterway.stream" color="181,209,209" fill="0" layer="-4.00" shape="157.23,564.77 152.16,586.06 156.10,610.75 162.53,623.53 171.97,644.11 177.32,684.35 178.68,716.49 178.27,727.72"/>
    <poly id="136020430" type="building.yes" color="255,230,230" fill="1" layer="-1.00" shape="850.41,519.75 850.47,524.01 855.13,523.95 855.06,519.68 850.41,519.75"/>
    <poly id="136020431" type="building.yes" color="255,230,230" fill="1" layer="-1.00" shape="973.10,537.91 973.32,539.57 978.15,539.45 978.34,541.23 981.93,541.00 980.74,528.37 972.88,527.92 973.10,537.91"/>
    <poly id="136020432" type="building.yes" color="255,230,230" fill="1" layer="-1.00" shape="966.19,535.86 967.44,539.03 973.10,537.91 972.88,527.92 968.15,527.88 963.47,528.85 966.19,535.86"/>
    <poly id="138552984" type="building.yes" color="255,230,230" fill="1" layer="-1.00" shape="186.47,664.41 189.42,667.91 191.08,666.51 188.13,663.03 186.47,664.41"/>
    <poly id="144015357" type="building.yes" color="255,230,230" fill="1" layer="-1.00" shape="1065.54,851.93 1069.89,846.95 1066.05,843.62 1061.70,848.61 1065.54,851.93"/>
    <poly id="144015358" type="building.yes" color="255,230,230" fill="1" layer="-1.00" shape="843.44,665.79 840.90,671.32 851.43,676.14 853.97,670.61 843.44,665.79"/>
    <poly id="144015359" type="building.yes" color="255,230,230" fill="1" layer="-1.00" shape="909.34,653.47 907.02,639.47 902.42,640.33 904.68,654.33 909.34,653.47"/>
    <poly id="144018728" type="building.yes" color="255,230,230" fill="1" layer="-1.00" shape="662.01,618.90 664.45,620.96 666.34,618.74 663.89,616.68 662.01,618.90"/>
    <poly id="144018728#1" type="historic.yes" color="128,255,128" fill="1" layer="-1.00" shape="662.01,618.90 664.45,620.96 666.34,618.74 663.89,616.68 662.01,618.90"/>
    <poly id="144018728#2" type="man_made.tower" color="255,230,230" fill="1" layer="-1.00" shape="662.01,618.90 664.45,620.96 666.34,618.74 663.89,616.68 662.01,618.90"/>
    <poly id="144018729" type="building.yes" color="255,230,230" fill="1" layer="-1.00" shape="808.87,685.05 814.06,680.62 810.08,675.97 804.89,680.40 808.87,685.05"/>
    <poly id="144018730" type="building.yes" color="255,230,230" fill="1" layer="-1.00" shape="745.09,685.88 751.40,686.50 751.64,684.06 745.33,683.45 745.09,685.88"/>
    <poly id="144018730#1" type="tourism.artwork" color="207,245,201" fill="1" layer="-2.00" shape="745.09,685.88 751.40,686.50 751.64,684.06 745.33,683.45 745.09,685.88"/>
    <poly id="144024474" type="building.yes" color="255,230,230" fill="1" layer="-1.00" shape="689.58,577.57 689.50,576.23 689.50,574.97 685.92,575.54 684.93,578.08 686.67,579.03 689.58,577.57"/>
    <poly id="144024474#1" type="historic.yes" color="128,255,128" fill="1" layer="-1.00" shape="689.58,577.57 689.50,576.23 689.50,574.97 685.92,575.54 684.93,578.08 686.67,579.03 689.58,577.57"/>
    <poly id="144024474#2" type="man_made.tower" color="255,230,230" fill="1" layer="-1.00" shape="689.58,577.57 689.50,576.23 689.50,574.97 685.92,575.54 684.93,578.08 686.67,579.03 689.58,577.57"/>
    <poly id="144024475" type="building.yes" color="255,230,230" fill="1" layer="-1.00" shape="639.88,624.11 642.38,623.79 642.09,621.54 639.58,621.87 639.88,624.11"/>
    <poly id="144024476" type="building.yes" color="255,230,230" fill="1" layer="-1.00" shape="762.31,541.26 768.59,540.63 767.17,526.51 760.90,527.14 762.31,541.26"/>
    <poly id="144024477" type="building.yes" color="255,230,230" fill="1" layer="-1.00" shape="714.72,564.50 716.01,566.79 717.40,566.01 719.01,565.13 717.73,562.84 714.72,564.50"/>
    <poly id="144024477#1" type="historic.yes" color="128,255,128" fill="1" layer="-1.00" shape="714.72,564.50 716.01,566.79 717.40,566.01 719.01,565.13 717.73,562.84 714.72,564.50"/>
    <poly id="144024477#2" type="man_made.tower" color="255,230,230" fill="1" layer="-1.00" shape="714.72,564.50 716.01,566.79 717.40,566.01 719.01,565.13 717.73,562.84 714.72,564.50"/>
    <poly id="144024478" type="building.yes" color="255,230,230" fill="1" layer="-1.00" shape="650.45,635.86 650.05,639.92 651.95,640.11 651.27,646.64 656.34,647.16 657.02,640.59 657.75,640.66 658.15,636.60 650.45,635.86"/>
    <poly id="144107076" type="building.yes" color="255,230,230" fill="1" layer="-1.00" shape="853.02,364.09 854.25,366.46 857.84,364.61 856.43,361.90 856.61,362.25 853.02,364.09"/>
    <poly id="144114298" type="building.yes" color="255,230,230" fill="1" layer="-1.00" shape="228.97,596.10 237.72,590.22 234.56,584.54 232.67,584.99 227.50,588.29 225.19,590.19 228.97,596.10"/>
    <poly id="144784043" type="building.yes" color="255,230,230" fill="1" layer="-1.00" shape="1086.60,400.41 1089.68,398.91 1085.85,391.05 1082.76,392.54 1086.60,400.41"/>
    <poly id="144790711" type="building.yes" color="255,230,230" fill="1" layer="-1.00" shape="942.36,517.87 948.87,515.09 943.40,502.33 936.88,505.11 942.36,517.87"/>
    <poly id="144790712" type="building.yes" color="255,230,230" fill="1" layer="-1.00" shape="1307.85,559.06 1308.18,560.94 1309.64,560.60 1310.97,561.47 1311.86,559.88 1310.02,558.49 1307.85,559.06"/>
    <poly id="144790712#1" type="historic.yes" color="128,255,128" fill="1" layer="-1.00" shape="1307.85,559.06 1308.18,560.94 1309.64,560.60 1310.97,561.47 1311.86,559.88 1310.02,558.49 1307.85,559.06"/>
    <poly id="144790712#2" type="man_made.tower" color="255,230,230" fill="1" layer="-1.00" shape="1307.85,559.06 1308.18,560.94 1309.64,560.60 1310.97,561.47 1311.86,559.88 1310.02,558.49 1307.85,559.06"/>
    <poly id="144790713" type="building.yes" color="255,230,230" fill="1" layer="-1.00" shape="992.99,504.28 992.76,503.69 982.33,508.48 985.73,517.44 993.04,513.97 994.70,518.07 1005.06,513.23 1000.22,501.36 992.99,504.28"/>
    <poly id="144818480" type="building.yes" color="255,230,230" fill="1" layer="-1.00" shape="1184.54,468.82 1182.61,469.95 1183.72,471.85 1185.65,470.72 1184.54,468.82"/>
    <poly id="144818480#1" type="historic.yes" color="128,255,128" fill="1" layer="-1.00" shape="1184.54,468.82 1182.61,469.95 1183.72,471.85 1185.65,470.72 1184.54,468.82"/>
    <poly id="144818480#2" type="man_made.tower" color="255,230,230" fill="1" layer="-1.00" shape="1184.54,468.82 1182.61,469.95 1183.72,471.85 1185.65,470.72 1184.54,468.82"/>
    <poly id="144819719" type="building.yes" color="255,230,230" fill="1" layer="-1.00" shape="1049.11,529.94 1049.11,528.90 1046.50,528.95 1045.07,531.32 1046.93,532.25 1047.56,531.42 1048.99,531.41 1049.11,529.94"/>
    <poly id="144819719#1" type="historic.yes" color="128,255,128" fill="1" layer="-1.00" shape="1049.11,529.94 1049.11,528.90 1046.50,528.95 1045.07,531.32 1046.93,532.25 1047.56,531.42 1048.99,531.41 1049.11,529.94"/>
    <poly id="144819719#2" type="man_made.tower" color="255,230,230" fill="1" layer="-1.00" shape="1049.11,529.94 1049.11,528.90 1046.50,528.95 1045.07,531.32 1046.93,532.25 1047.56,531.42 1048.99,531.41 1049.11,529.94"/>
    <poly id="144829486" type="building.yes" color="255,230,230" fill="1" layer="-1.00" shape="881.15,576.79 883.76,575.20 882.04,572.59 879.53,574.18 880.17,575.22 881.15,576.79"/>
    <poly id="144829486#1" type="historic.yes" color="128,255,128" fill="1" layer="-1.00" shape="881.15,576.79 883.76,575.20 882.04,572.59 879.53,574.18 880.17,575.22 881.15,576.79"/>
    <poly id="144829486#2" type="man_made.tower" color="255,230,230" fill="1" layer="-1.00" shape="881.15,576.79 883.76,575.20 882.04,572.59 879.53,574.18 880.17,575.22 881.15,576.79"/>
    <poly id="144835953" type="building.residential" color="255,230,230" fill="1" layer="-1.00" shape="1363.70,594.00 1370.92,588.08 1373.18,590.82 1365.95,596.74 1363.70,594.00"/>
    <poly id="145326648" type="building.yes" color="255,230,230" fill="1" layer="-1.00" shape="1341.79,412.56 1343.36,414.83 1345.88,416.95 1348.85,418.23 1351.45,418.62 1354.79,418.22 1357.43,417.13 1360.15,414.95 1362.10,412.01 1362.97,409.10 1362.94,405.41 1361.80,402.10 1359.98,399.58 1357.32,397.53 1354.67,396.46 1351.62,396.09 1348.61,396.56 1345.73,397.87 1343.20,400.08 1341.66,402.42 1340.75,405.11 1340.52,407.86 1340.88,410.22 1341.79,412.56"/>
    <poly id="147921854" type="amenity.fountain" color="237,199,199" fill="1" layer="-1.00" shape="150.31,550.10 150.20,547.45 147.85,546.22 145.60,547.64 145.70,550.28 148.06,551.51 150.31,550.10"/>
    <poly id="147921854#1" type="natural.water" color="181,209,209" fill="1" layer="-4.00" shape="150.31,550.10 150.20,547.45 147.85,546.22 145.60,547.64 145.70,550.28 148.06,551.51 150.31,550.10"/>
    <poly id="147921854#2" type="tourism.artwork" color="207,245,201" fill="1" layer="-2.00" shape="150.31,550.10 150.20,547.45 147.85,546.22 145.60,547.64 145.70,550.28 148.06,551.51 150.31,550.10"/>
    <poly id="148199188" type="natural.cliff" color="140,196,107" fill="0" layer="-4.00" shape="966.65,866.93 966.32,868.09 965.84,869.82 964.45,872.97 962.25,875.37 957.75,876.61 953.47,875.77 949.35,874.31 946.51,872.21 944.36,870.09"/>
    <poly id="148287447" type="natural.cliff" color="140,196,107" fill="0" layer="-4.00" shape="224.95,313.26 216.31,304.97 211.95,299.11 204.83,297.97 194.67,299.32 185.42,305.98 173.55,323.40 172.99,327.62 174.31,331.56 182.93,338.80 187.37,345.23 188.21,354.86 187.16,357.32 187.22,362.23 189.19,366.94 189.23,368.92"/>
    <poly id="148287449" type="natural.cliff" color="140,196,107" fill="0" layer="-4.00" shape="216.75,311.78 210.40,312.07 203.25,320.65 199.19,328.10 199.43,330.85 189.15,354.37"/>
    <poly id="148861135" type="building.yes" color="255,230,230" fill="1" layer="-1.00" shape="630.72,592.40 634.47,595.59 635.79,594.33 631.69,591.48 630.72,592.40"/>