<?xml version="1.0" encoding="UTF-8"?>

<!-- generated on 05/08/18 12:05:26 by SUMO netconvert Version 0.32.0
<?xml version="1.0" encoding="UTF-8"?>

<configuration xmlns:xsi="http://www.w3.org/2001/XMLSchema-instance" xsi:noNamespaceSchemaLocation="http://sumo.dlr.de/xsd/netconvertConfiguration.xsd">

    <input>
        <type-files value="C:\Program%20Files%20(x86)\DLR\Sumo\data\typemap\osmNetconvert.typ.xml"/>
        <osm-files value="osm_bbox.osm.xml"/>
    </input>

    <output>
        <output-file value="C:\Users\Michel\Sumo\2018-05-08-12-05-23\osm.net.xml"/>
        <output.street-names value="true"/>
        <output.original-names value="true"/>
    </output>

    <projection>
        <proj.utm value="true"/>
    </projection>

    <tls_building>
        <tls.discard-simple value="true"/>
        <tls.join value="true"/>
        <tls.guess-signals value="true"/>
        <tls.default-type value="actuated"/>
    </tls_building>

    <ramp_guessing>
        <ramps.guess value="true"/>
    </ramp_guessing>

    <processing>
        <geometry.remove value="true"/>
        <roundabouts.guess value="true"/>
        <junctions.join value="true"/>
        <junctions.corner-detail value="5"/>
    </processing>

    <report>
        <verbose value="true"/>
    </report>

</configuration>
-->

<net version="0.27" junctionCornerDetail="5" xmlns:xsi="http://www.w3.org/2001/XMLSchema-instance" xsi:noNamespaceSchemaLocation="http://sumo.dlr.de/xsd/net_file.xsd">

    <location netOffset="-353027.49,-5295485.24" convBoundary="0.00,0.00,1602.83,1032.23" origBoundary="13.036459,47.771126,13.076206,47.811033" projParameter="+proj=utm +zone=33 +ellps=WGS84 +datum=WGS84 +units=m +no_defs"/>

    <type id="highway.bridleway" priority="1" numLanes="1" speed="2.78" allow="pedestrian" oneway="1" width="2.00"/>
    <type id="highway.bus_guideway" priority="1" numLanes="1" speed="8.33" allow="bus" oneway="1"/>
    <type id="highway.cycleway" priority="1" numLanes="1" speed="5.56" allow="bicycle" oneway="0" width="1.00"/>
    <type id="highway.footway" priority="1" numLanes="1" speed="2.78" allow="pedestrian" oneway="1" width="2.00"/>
    <type id="highway.ford" priority="1" numLanes="1" speed="2.78" allow="army" oneway="0"/>
    <type id="highway.living_street" priority="3" numLanes="1" speed="2.78" disallow="tram rail_urban rail rail_electric ship" oneway="0"/>
    <type id="highway.motorway" priority="13" numLanes="2" speed="44.44" allow="private emergency authority army vip passenger hov taxi bus coach delivery truck trailer motorcycle evehicle custom1 custom2" oneway="1"/>
    <type id="highway.motorway_link" priority="12" numLanes="1" speed="22.22" allow="private emergency authority army vip passenger hov taxi bus coach delivery truck trailer motorcycle evehicle custom1 custom2" oneway="1"/>
    <type id="highway.path" priority="1" numLanes="1" speed="2.78" allow="bicycle pedestrian" oneway="1" width="2.00"/>
    <type id="highway.pedestrian" priority="1" numLanes="1" speed="2.78" allow="pedestrian" oneway="1" width="2.00"/>
    <type id="highway.primary" priority="9" numLanes="2" speed="27.78" disallow="tram rail_urban rail rail_electric ship" oneway="0"/>
    <type id="highway.primary_link" priority="8" numLanes="1" speed="22.22" disallow="tram rail_urban rail rail_electric ship" oneway="0"/>
    <type id="highway.raceway" priority="14" numLanes="2" speed="83.33" allow="vip" oneway="0"/>
    <type id="highway.residential" priority="4" numLanes="1" speed="13.89" disallow="tram rail_urban rail rail_electric ship" oneway="0"/>
    <type id="highway.secondary" priority="7" numLanes="2" speed="27.78" disallow="tram rail_urban rail rail_electric ship" oneway="0"/>
    <type id="highway.secondary_link" priority="6" numLanes="1" speed="22.22" disallow="tram rail_urban rail rail_electric ship" oneway="0"/>
    <type id="highway.service" priority="2" numLanes="1" speed="5.56" allow="delivery bicycle pedestrian" oneway="0"/>
    <type id="highway.services" priority="1" numLanes="1" speed="8.33" disallow="tram rail_urban rail rail_electric ship" oneway="0"/>
    <type id="highway.stairs" priority="1" numLanes="1" speed="1.39" allow="pedestrian" oneway="1" width="2.00"/>
    <type id="highway.step" priority="1" numLanes="1" speed="1.39" allow="pedestrian" oneway="1" width="2.00"/>
    <type id="highway.steps" priority="1" numLanes="1" speed="1.39" allow="pedestrian" oneway="1" width="2.00"/>
    <type id="highway.tertiary" priority="6" numLanes="1" speed="22.22" disallow="tram rail_urban rail rail_electric ship" oneway="0"/>
    <type id="highway.tertiary_link" priority="5" numLanes="1" speed="22.22" disallow="tram rail_urban rail rail_electric ship" oneway="0"/>
    <type id="highway.track" priority="1" numLanes="1" speed="5.56" disallow="tram rail_urban rail rail_electric ship" oneway="0"/>
    <type id="highway.trunk" priority="11" numLanes="2" speed="27.78" disallow="tram rail_urban rail rail_electric bicycle pedestrian ship" oneway="0"/>
    <type id="highway.trunk_link" priority="10" numLanes="1" speed="22.22" disallow="tram rail_urban rail rail_electric bicycle pedestrian ship" oneway="0"/>
    <type id="highway.unclassified" priority="5" numLanes="1" speed="13.89" disallow="tram rail_urban rail rail_electric ship" oneway="0"/>
    <type id="highway.unsurfaced" priority="1" numLanes="1" speed="8.33" disallow="tram rail_urban rail rail_electric ship" oneway="0"/>
    <type id="railway.light_rail" priority="15" numLanes="1" speed="27.78" allow="rail_urban" oneway="1"/>
    <type id="railway.preserved" priority="15" numLanes="1" speed="27.78" allow="rail" oneway="1"/>
    <type id="railway.rail" priority="15" numLanes="1" speed="83.33" allow="rail rail_electric" oneway="1"/>
    <type id="railway.subway" priority="15" numLanes="1" speed="27.78" allow="rail_urban" oneway="1"/>
    <type id="railway.tram" priority="15" numLanes="1" speed="13.89" allow="tram" oneway="1"/>

    <edge id=":1020194425_0" function="internal">
        <lane id=":1020194425_0_0" index="0" disallow="tram rail_urban rail rail_electric ship" speed="13.89" length="5.03" shape="360.40,720.87 356.38,723.88"/>
    </edge>
    <edge id=":1020194431_0" function="internal">
        <lane id=":1020194431_0_0" index="0" disallow="tram rail_urban rail rail_electric ship" speed="13.89" length="5.22" shape="397.29,762.71 393.36,766.14"/>
    </edge>
    <edge id=":1020194431_1" function="internal">
        <lane id=":1020194431_1_0" index="0" disallow="tram rail_urban rail rail_electric ship" speed="13.89" length="2.41" shape="397.29,762.71 395.82,762.92 394.96,762.57"/>
    </edge>
    <edge id=":1020194431_6" function="internal">
        <lane id=":1020194431_6_0" index="0" speed="13.89" length="2.41" shape="394.96,762.57 394.72,761.68 395.10,760.24"/>
    </edge>
    <edge id=":1020194431_2" function="internal">
        <lane id=":1020194431_2_0" index="0" disallow="tram rail_urban rail rail_electric ship" speed="13.89" length="5.09" shape="386.92,758.62 390.72,755.31"/>
        <lane id=":1020194431_2_1" index="1" disallow="tram rail_urban rail rail_electric ship" speed="13.89" length="5.09" shape="389.07,761.12 392.91,757.78"/>
        <lane id=":1020194431_2_2" index="2" disallow="tram rail_urban rail rail_electric ship" speed="13.89" length="5.09" shape="391.21,763.63 395.10,760.24"/>
    </edge>
    <edge id=":1020194431_5" function="internal">
        <lane id=":1020194431_5_0" index="0" disallow="tram rail_urban rail rail_electric ship" speed="13.89" length="2.41" shape="391.21,763.63 392.69,763.46 393.54,763.81"/>
    </edge>
    <edge id=":1020194431_7" function="internal">
        <lane id=":1020194431_7_0" index="0" speed="13.89" length="2.41" shape="393.54,763.81 393.76,764.71 393.36,766.14"/>
    </edge>
    <edge id=":10778592_0" function="internal">
        <lane id=":10778592_0_0" index="0" disallow="tram rail_urban rail rail_electric ship" speed="13.89" length="4.82" shape="103.93,246.49 103.44,245.09 103.61,244.18 104.44,243.77 105.92,243.86"/>
    </edge>
    <edge id=":1096557768_0" function="internal">
        <lane id=":1096557768_0_0" index="0" disallow="tram rail_urban rail rail_electric ship" speed="13.89" length="3.60" shape="303.38,849.47 303.65,853.80"/>
        <lane id=":1096557768_0_1" index="1" disallow="tram rail_urban rail rail_electric ship" speed="13.89" length="3.60" shape="303.38,849.47 301.33,851.46"/>
    </edge>
    <edge id=":1096557768_2" function="internal">
        <lane id=":1096557768_2_0" index="0" disallow="tram rail_urban rail rail_electric ship" speed="13.89" length="2.41" shape="303.38,849.47 301.92,849.72 301.05,849.40"/>
    </edge>
    <edge id=":1096557768_7" function="internal">
        <lane id=":1096557768_7_0" index="0" speed="13.89" length="2.41" shape="301.05,849.40 300.78,848.52 301.12,847.07"/>
    </edge>
    <edge id=":1096557768_3" function="internal">
        <lane id=":1096557768_3_0" index="0" disallow="tram rail_urban rail rail_electric ship" speed="13.89" length="3.03" shape="294.35,844.43 296.59,842.27"/>
        <lane id=":1096557768_3_1" index="1" disallow="tram rail_urban rail rail_electric ship" speed="13.89" length="3.03" shape="296.68,846.77 298.85,844.67"/>
        <lane id=":1096557768_3_2" index="2" disallow="tram rail_urban rail rail_electric ship" speed="13.89" length="3.03" shape="299.00,849.12 301.12,847.07"/>
    </edge>
    <edge id=":1096557768_6" function="internal">
        <lane id=":1096557768_6_0" index="0" disallow="tram rail_urban rail rail_electric ship" speed="13.89" length="2.41" shape="299.00,849.12 300.46,848.83 301.33,849.12"/>
    </edge>
    <edge id=":1096557768_8" function="internal">
        <lane id=":1096557768_8_0" index="0" speed="13.89" length="2.41" shape="301.33,849.12 301.62,850.00 301.33,851.46"/>
    </edge>
    <edge id=":1103028184_0" function="internal">
        <lane id=":1103028184_0_0" index="0" allow="delivery bicycle pedestrian" speed="5.56" length="4.82" shape="85.56,500.84 84.79,502.04 84.20,502.82 83.50,503.52 82.45,504.49"/>
    </edge>
    <edge id=":1103028184_1" function="internal">
        <lane id=":1103028184_1_0" index="0" allow="delivery bicycle pedestrian" speed="5.56" length="2.53" shape="85.56,500.84 84.21,501.45 83.29,501.37 83.23,501.27"/>
    </edge>
    <edge id=":1103028184_4" function="internal">
        <lane id=":1103028184_4_0" index="0" speed="5.56" length="2.29" shape="83.23,501.27 82.81,500.59 82.76,499.10"/>
    </edge>
    <edge id=":1103028184_2" function="internal">
        <lane id=":1103028184_2_0" index="0" allow="delivery bicycle pedestrian" speed="5.56" length="3.91" shape="80.22,502.05 81.08,501.27 81.64,500.70 82.13,500.07 82.76,499.10"/>
    </edge>
    <edge id=":1103028184_3" function="internal">
        <lane id=":1103028184_3_0" index="0" allow="delivery bicycle pedestrian" speed="5.56" length="2.41" shape="80.22,502.05 81.69,501.82 82.55,502.15"/>
    </edge>
    <edge id=":1103028184_5" function="internal">
        <lane id=":1103028184_5_0" index="0" speed="5.56" length="2.41" shape="82.55,502.15 82.81,503.04 82.45,504.49"/>
    </edge>
    <edge id=":1112100843_0" function="internal">
        <lane id=":1112100843_0_0" index="0" allow="bicycle pedestrian" speed="4.17" length="3.50" width="2.00" shape="576.33,575.74 575.28,576.40 574.56,577.04 574.20,577.65 574.17,578.24"/>
    </edge>
    <edge id=":1112100843_1" function="internal">
        <lane id=":1112100843_1_0" index="0" allow="bicycle pedestrian" speed="4.17" length="4.65" width="2.00" shape="576.33,575.74 575.21,576.12 574.25,575.96 573.44,575.25 572.78,574.00"/>
    </edge>
    <edge id=":1112100843_2" function="internal">
        <lane id=":1112100843_2_0" index="0" allow="bicycle" speed="5.56" length="1.61" width="1.00" shape="576.33,575.74 575.84,575.70 575.58,575.52 575.57,575.21 575.80,574.78"/>
    </edge>
    <edge id=":1118977694_0" function="internal">
        <lane id=":1118977694_0_0" index="0" allow="delivery bicycle pedestrian" speed="6.95" length="10.93" shape="278.00,604.44 275.48,606.19 273.94,607.93 272.64,609.94 270.83,612.51"/>
    </edge>
    <edge id=":1118977694_1" function="internal">
        <lane id=":1118977694_1_0" index="0" disallow="tram rail_urban rail rail_electric ship" speed="8.33" length="10.92" shape="278.00,604.44 268.41,609.67"/>
    </edge>
    <edge id=":1118977694_2" function="internal">
        <lane id=":1118977694_2_0" index="0" disallow="tram rail_urban rail rail_electric ship" speed="8.33" length="4.82" shape="278.00,604.44 276.51,604.34 275.75,603.83 275.70,602.91 276.36,601.58"/>
    </edge>
    <edge id=":1118977694_3" function="internal">
        <lane id=":1118977694_3_0" index="0" disallow="tram rail_urban rail rail_electric ship" speed="8.33" length="10.87" shape="266.82,606.78 276.36,601.58"/>
    </edge>
    <edge id=":1118977694_4" function="internal">
        <lane id=":1118977694_4_0" index="0" disallow="tram rail_urban rail rail_electric ship" speed="8.33" length="4.82" shape="266.82,606.78 268.30,606.90 269.06,607.43 269.09,608.35 268.41,609.67"/>
    </edge>
    <edge id=":1120250119_0" function="internal">
        <lane id=":1120250119_0_0" index="0" allow="bicycle" speed="5.56" length="6.21" width="1.00" shape="188.92,326.49 187.08,326.31 185.78,326.19 184.59,325.81 183.08,324.83"/>
    </edge>
    <edge id=":1133805226_0" function="internal">
        <lane id=":1133805226_0_0" index="0" allow="bicycle" speed="5.56" length="4.99" width="1.00" shape="169.38,314.36 165.46,311.28"/>
    </edge>
    <edge id=":1161496898_0" function="internal">
        <lane id=":1161496898_0_0" index="0" disallow="tram rail_urban rail rail_electric ship" speed="13.89" length="6.94" shape="484.03,511.59 477.24,513.04"/>
    </edge>
    <edge id=":1161496898_1" function="internal">
        <lane id=":1161496898_1_0" index="0" allow="delivery bicycle pedestrian" speed="9.72" length="4.79" shape="484.03,511.59 480.85,511.64 479.46,510.83"/>
    </edge>
    <edge id=":1161496898_2" function="internal">
        <lane id=":1161496898_2_0" index="0" disallow="tram rail_urban rail rail_electric ship" speed="13.89" length="2.41" shape="484.03,511.59 482.64,511.05 482.06,510.34"/>
    </edge>
    <edge id=":1161496898_13" function="internal">
        <lane id=":1161496898_13_0" index="0" speed="9.72" length="9.02" shape="479.46,510.83 478.41,510.22 476.71,507.34 475.75,502.98"/>
    </edge>
    <edge id=":1161496898_14" function="internal">
        <lane id=":1161496898_14_0" index="0" speed="13.89" length="2.41" shape="482.06,510.34 482.28,509.44 483.31,508.37"/>
    </edge>
    <edge id=":1161496898_3" function="internal">
        <lane id=":1161496898_3_0" index="0" disallow="tram rail_urban rail rail_electric ship" speed="9.72" length="5.13" shape="479.03,502.60 479.39,503.98 480.11,504.86 481.18,505.25 482.60,505.15"/>
    </edge>
    <edge id=":1161496898_4" function="internal">
        <lane id=":1161496898_4_0" index="0" disallow="tram rail_urban rail rail_electric ship" speed="9.72" length="11.20" shape="479.03,502.60 479.35,506.96 479.16,510.16 478.46,512.18 477.24,513.04"/>
    </edge>
    <edge id=":1161496898_5" function="internal">
        <lane id=":1161496898_5_0" index="0" allow="delivery bicycle pedestrian" speed="5.56" length="4.82" shape="479.03,502.60 478.35,503.93 477.58,504.43 476.71,504.12 475.75,502.98"/>
    </edge>
    <edge id=":1161496898_6" function="internal">
        <lane id=":1161496898_6_0" index="0" allow="delivery bicycle pedestrian" speed="6.95" length="8.74" shape="472.97,509.87 474.53,509.77 475.51,508.59 475.92,506.32 475.75,502.98"/>
    </edge>
    <edge id=":1161496898_7" function="internal">
        <lane id=":1161496898_7_0" index="0" disallow="tram rail_urban rail rail_electric ship" speed="11.11" length="10.64" shape="472.97,509.87 475.92,510.28 478.05,509.98 480.23,509.24 483.31,508.37"/>
    </edge>
    <edge id=":1161496898_8" function="internal">
        <lane id=":1161496898_8_0" index="0" disallow="tram rail_urban rail rail_electric ship" speed="11.11" length="8.50" shape="472.97,509.87 476.73,510.90 478.70,511.77 478.87,512.49 477.24,513.04"/>
    </edge>
    <edge id=":1161496898_9" function="internal">
        <lane id=":1161496898_9_0" index="0" allow="delivery bicycle pedestrian" speed="9.72" length="3.79" shape="476.01,506.56 476.40,506.06 476.29,505.07 475.98,503.94 475.75,502.98"/>
    </edge>
    <edge id=":1161496898_10" function="internal">
        <lane id=":1161496898_10_0" index="0" disallow="tram rail_urban rail rail_electric ship" speed="13.89" length="6.79" shape="476.01,506.56 482.60,505.15"/>
        <lane id=":1161496898_10_1" index="1" disallow="tram rail_urban rail rail_electric ship" speed="13.89" length="6.79" shape="476.63,509.80 483.31,508.37"/>
    </edge>
    <edge id=":1161496898_12" function="internal">
        <lane id=":1161496898_12_0" index="0" disallow="tram rail_urban rail rail_electric ship" speed="13.89" length="2.41" shape="476.63,509.80 478.00,510.38 478.56,511.12"/>
    </edge>
    <edge id=":1161496898_15" function="internal">
        <lane id=":1161496898_15_0" index="0" speed="13.89" length="2.41" shape="478.56,511.12 478.31,512.00 477.24,513.04"/>
    </edge>
    <edge id=":1174369712_0" function="internal">
        <lane id=":1174369712_0_0" index="0" disallow="tram rail_urban rail rail_electric ship" speed="13.89" length="14.72" shape="511.70,662.29 508.58,665.73 506.66,668.69 505.27,671.51 503.73,674.55"/>
    </edge>
    <edge id=":1174369712_1" function="internal">
        <lane id=":1174369712_1_0" index="0" disallow="tram rail_urban rail rail_electric ship" speed="13.89" length="15.38" shape="511.70,662.29 500.56,672.91"/>
        <lane id=":1174369712_1_1" index="1" disallow="tram rail_urban rail rail_electric ship" speed="13.89" length="15.38" shape="509.40,659.91 498.28,670.52"/>
    </edge>
    <edge id=":1174369712_3" function="internal">
        <lane id=":1174369712_3_0" index="0" disallow="tram rail_urban rail rail_electric ship" speed="13.89" length="2.41" shape="509.40,659.91 507.94,660.18 507.07,659.88"/>
    </edge>
    <edge id=":1174369712_8" function="internal">
        <lane id=":1174369712_8_0" index="0" speed="13.89" length="2.41" shape="507.07,659.88 506.79,659.00 507.11,657.54"/>
    </edge>
    <edge id=":1174369712_4" function="internal">
        <lane id=":1174369712_4_0" index="0" disallow="tram rail_urban rail rail_electric ship" speed="13.89" length="15.32" shape="493.74,665.73 504.81,655.17"/>
        <lane id=":1174369712_4_1" index="1" disallow="tram rail_urban rail rail_electric ship" speed="13.89" length="15.32" shape="496.01,668.12 507.11,657.54"/>
    </edge>
    <edge id=":1174369712_6" function="internal">
        <lane id=":1174369712_6_0" index="0" disallow="tram rail_urban rail rail_electric ship" speed="13.89" length="15.44" shape="496.01,668.12 505.66,659.81 508.19,658.86"/>
    </edge>
    <edge id=":1174369712_7" function="internal">
        <lane id=":1174369712_7_0" index="0" disallow="tram rail_urban rail rail_electric ship" speed="13.89" length="2.41" shape="496.01,668.12 497.48,667.87 498.34,668.18"/>
    </edge>
    <edge id=":1174369712_9" function="internal">
        <lane id=":1174369712_9_0" index="0" speed="13.89" length="19.97" shape="508.19,658.86 510.17,658.11 509.52,663.02 503.73,674.55"/>
    </edge>
    <edge id=":1174369712_10" function="internal">
        <lane id=":1174369712_10_0" index="0" speed="13.89" length="2.41" shape="498.34,668.18 498.61,669.07 498.28,670.52"/>
    </edge>
    <edge id=":1174920348_0" function="internal">
        <lane id=":1174920348_0_0" index="0" disallow="tram rail_urban rail rail_electric ship" speed="11.11" length="0.21" shape="145.95,680.44 145.76,680.55"/>
    </edge>
    <edge id=":1174920348_1" function="internal">
        <lane id=":1174920348_1_0" index="0" disallow="tram rail_urban rail rail_electric ship" speed="8.33" length="2.41" shape="145.95,680.44 144.47,680.33 143.70,679.81"/>
    </edge>
    <edge id=":1174920348_4" function="internal">
        <lane id=":1174920348_4_0" index="0" speed="8.33" length="2.41" shape="143.70,679.81 143.66,678.89 144.33,677.57"/>
    </edge>
    <edge id=":1174920348_2" function="internal">
        <lane id=":1174920348_2_0" index="0" disallow="tram rail_urban rail rail_electric ship" speed="11.11" length="0.31" shape="144.06,677.72 144.33,677.57"/>
    </edge>
    <edge id=":1174920348_3" function="internal">
        <lane id=":1174920348_3_0" index="0" disallow="tram rail_urban rail rail_electric ship" speed="13.89" length="2.41" shape="144.06,677.72 145.55,677.79 146.33,678.29"/>
    </edge>
    <edge id=":1174920348_5" function="internal">
        <lane id=":1174920348_5_0" index="0" speed="13.89" length="2.41" shape="146.33,678.29 146.40,679.21 145.76,680.55"/>
    </edge>
    <edge id=":1174920368_0" function="internal">
        <lane id=":1174920368_0_0" index="0" disallow="tram rail_urban rail rail_electric ship" speed="13.89" length="4.82" shape="78.42,768.95 77.26,769.88 76.35,770.02 75.69,769.38 75.28,767.95"/>
    </edge>
    <edge id=":1178949749_0" function="internal">
        <lane id=":1178949749_0_0" index="0" allow="bicycle pedestrian" speed="2.78" length="12.07" width="2.00" shape="599.76,485.47 611.28,481.87"/>
    </edge>
    <edge id=":1178949749_1" function="internal">
        <lane id=":1178949749_1_0" index="0" allow="bicycle" speed="4.17" length="12.84" width="1.00" shape="599.76,485.47 604.34,484.30 606.07,484.35 604.95,485.63 600.99,488.14"/>
    </edge>
    <edge id=":1178949749_2" function="internal">
        <lane id=":1178949749_2_0" index="0" allow="bicycle pedestrian" speed="4.17" length="12.09" width="2.00" shape="600.44,487.19 603.30,485.56 605.74,484.27 608.23,483.12 611.28,481.87"/>
    </edge>
    <edge id=":1178949749_3" function="internal">
        <lane id=":1178949749_3_0" index="0" allow="bicycle" speed="5.56" length="1.61" width="1.00" shape="600.44,487.19 600.93,487.22 601.19,487.39 601.21,487.69 600.99,488.14"/>
    </edge>
    <edge id=":11840559_0" function="internal">
        <lane id=":11840559_0_0" index="0" disallow="tram rail_urban rail rail_electric ship" speed="13.89" length="8.43" shape="439.34,734.73 437.03,732.69 435.06,731.53 433.43,731.22 432.14,731.78"/>
    </edge>
    <edge id=":11840559_1" function="internal">
        <lane id=":11840559_1_0" index="0" allow="delivery bicycle pedestrian" speed="9.72" length="18.67" shape="441.66,732.38 437.83,727.67 435.58,723.40 433.92,719.68 431.87,716.60"/>
    </edge>
    <edge id=":11840559_2" function="internal">
        <lane id=":11840559_2_0" index="0" disallow="tram rail_urban rail rail_electric ship" speed="13.89" length="9.28" shape="441.66,732.38 439.01,728.90 438.14,725.49 438.50,724.15"/>
    </edge>
    <edge id=":11840559_3" function="internal">
        <lane id=":11840559_3_0" index="0" disallow="tram rail_urban rail rail_electric ship" speed="13.89" length="2.72" shape="441.66,732.38 441.36,730.92 441.65,730.04 441.94,729.95"/>
    </edge>
    <edge id=":11840559_17" function="internal">
        <lane id=":11840559_17_0" index="0" speed="13.89" length="6.31" shape="438.50,724.15 439.04,722.15 441.71,718.87"/>
    </edge>
    <edge id=":11840559_18" function="internal">
        <lane id=":11840559_18_0" index="0" speed="13.89" length="2.10" shape="441.94,729.95 442.52,729.75 443.98,730.03"/>
    </edge>
    <edge id=":11840559_4" function="internal">
        <lane id=":11840559_4_0" index="0" disallow="tram rail_urban rail rail_electric ship" speed="13.89" length="7.45" shape="446.16,723.75 444.36,725.66 443.40,727.34 443.27,728.80 443.98,730.03"/>
    </edge>
    <edge id=":11840559_5" function="internal">
        <lane id=":11840559_5_0" index="0" disallow="tram rail_urban rail rail_electric ship" speed="13.89" length="16.24" shape="446.16,723.75 441.97,726.83 438.31,728.56 435.07,729.89 432.14,731.78"/>
    </edge>
    <edge id=":11840559_6" function="internal">
        <lane id=":11840559_6_0" index="0" allow="delivery bicycle pedestrian" speed="9.72" length="4.30" shape="443.94,721.31 441.65,722.41 439.91,722.15"/>
    </edge>
    <edge id=":11840559_7" function="internal">
        <lane id=":11840559_7_0" index="0" disallow="tram rail_urban rail rail_electric ship" speed="13.89" length="2.65" shape="443.94,721.31 442.47,721.53 441.61,721.20 441.54,720.97"/>
    </edge>
    <edge id=":11840559_19" function="internal">
        <lane id=":11840559_19_0" index="0" speed="9.72" length="9.93" shape="439.91,722.15 438.88,721.99 435.62,720.05 431.87,716.60"/>
    </edge>
    <edge id=":11840559_20" function="internal">
        <lane id=":11840559_20_0" index="0" speed="13.89" length="2.17" shape="441.54,720.97 441.36,720.31 441.71,718.87"/>
    </edge>
    <edge id=":11840559_8" function="internal">
        <lane id=":11840559_8_0" index="0" disallow="tram rail_urban rail rail_electric ship" speed="9.72" length="4.88" shape="435.27,715.39 436.46,716.44 437.57,716.96 438.58,716.96 439.49,716.43"/>
    </edge>
    <edge id=":11840559_9" function="internal">
        <lane id=":11840559_9_0" index="0" disallow="tram rail_urban rail rail_electric ship" speed="9.72" length="17.09" shape="435.27,715.39 437.58,718.71 439.58,722.75 441.61,726.77 443.98,730.03"/>
    </edge>
    <edge id=":11840559_10" function="internal">
        <lane id=":11840559_10_0" index="0" disallow="tram rail_urban rail rail_electric ship" speed="9.72" length="9.32" shape="435.27,715.39 437.70,719.19 437.99,723.19 437.67,723.92"/>
    </edge>
    <edge id=":11840559_11" function="internal">
        <lane id=":11840559_11_0" index="0" allow="delivery bicycle pedestrian" speed="5.56" length="2.34" shape="435.27,715.39 434.87,716.96 434.38,717.48"/>
    </edge>
    <edge id=":11840559_21" function="internal">
        <lane id=":11840559_21_0" index="0" speed="9.72" length="9.73" shape="437.67,723.92 436.14,727.38 432.14,731.78"/>
    </edge>
    <edge id=":11840559_22" function="internal">
        <lane id=":11840559_22_0" index="0" speed="5.56" length="2.93" shape="434.38,717.48 434.17,717.69 433.17,717.57 431.87,716.60"/>
    </edge>
    <edge id=":11840559_12" function="internal">
        <lane id=":11840559_12_0" index="0" allow="delivery bicycle pedestrian" speed="9.72" length="10.17" shape="425.67,724.29 428.80,721.37 430.88,719.12 431.90,717.52 431.87,716.60"/>
    </edge>
    <edge id=":11840559_13" function="internal">
        <lane id=":11840559_13_0" index="0" disallow="tram rail_urban rail rail_electric ship" speed="13.89" length="16.06" shape="425.67,724.29 429.51,721.59 432.61,720.39 435.69,719.17 439.49,716.43"/>
        <lane id=":11840559_13_1" index="1" disallow="tram rail_urban rail rail_electric ship" speed="13.89" length="16.06" shape="427.83,726.79 431.69,724.07 434.80,722.86 437.89,721.63 441.71,718.87"/>
    </edge>
    <edge id=":11840559_15" function="internal">
        <lane id=":11840559_15_0" index="0" disallow="tram rail_urban rail rail_electric ship" speed="13.89" length="9.16" shape="429.98,729.28 433.48,727.01 436.98,726.37 438.36,726.77"/>
    </edge>
    <edge id=":11840559_16" function="internal">
        <lane id=":11840559_16_0" index="0" disallow="tram rail_urban rail rail_electric ship" speed="13.89" length="2.69" shape="429.98,729.28 431.46,729.10 432.31,729.45 432.38,729.72"/>
    </edge>
    <edge id=":11840559_23" function="internal">
        <lane id=":11840559_23_0" index="0" speed="13.89" length="6.60" shape="438.36,726.77 440.48,727.38 443.98,730.03"/>
    </edge>
    <edge id=":11840559_24" function="internal">
        <lane id=":11840559_24_0" index="0" speed="13.89" length="2.13" shape="432.38,729.72 432.54,730.35 432.14,731.78"/>
    </edge>
    <edge id=":11840561_0" function="internal">
        <lane id=":11840561_0_0" index="0" disallow="tram rail_urban rail rail_electric ship" speed="13.89" length="4.27" shape="575.70,588.67 574.83,589.18 574.13,589.90 573.59,590.82 573.22,591.96"/>
    </edge>
    <edge id=":11840561_1" function="internal">
        <lane id=":11840561_1_0" index="0" disallow="tram rail_urban rail rail_electric ship" speed="13.89" length="7.39" shape="574.41,585.64 572.84,586.54 571.58,587.77 570.64,589.33 570.01,591.22"/>
    </edge>
    <edge id=":11840561_2" function="internal">
        <lane id=":11840561_2_0" index="0" disallow="tram rail_urban rail rail_electric ship" speed="13.89" length="9.50" shape="573.12,582.60 570.29,583.46 567.99,583.42 566.22,582.47 564.99,580.62"/>
    </edge>
    <edge id=":11840561_3" function="internal">
        <lane id=":11840561_3_0" index="0" disallow="tram rail_urban rail rail_electric ship" speed="13.89" length="12.30" shape="571.66,579.45 573.13,582.99 573.88,585.58 573.92,588.23 573.22,591.96"/>
        <lane id=":11840561_3_1" index="1" disallow="tram rail_urban rail rail_electric ship" speed="13.89" length="12.30" shape="568.32,580.03 569.69,583.21 570.46,585.52 570.59,587.88 570.01,591.22"/>
    </edge>
    <edge id=":11840561_5" function="internal">
        <lane id=":11840561_5_0" index="0" disallow="tram rail_urban rail rail_electric ship" speed="13.89" length="2.09" shape="568.32,580.03 567.71,581.43 567.26,581.76"/>
    </edge>
    <edge id=":11840561_9" function="internal">
        <lane id=":11840561_9_0" index="0" speed="13.89" length="2.85" shape="567.26,581.76 566.95,581.99 566.04,581.72 564.99,580.62"/>
    </edge>
    <edge id=":11840561_6" function="internal">
        <lane id=":11840561_6_0" index="0" disallow="tram rail_urban rail rail_electric ship" speed="13.89" length="9.68" shape="563.57,589.74 563.93,587.17 563.62,585.38 562.81,583.64 561.66,581.20"/>
        <lane id=":11840561_6_1" index="1" disallow="tram rail_urban rail rail_electric ship" speed="13.89" length="9.68" shape="566.79,590.48 567.25,587.53 567.04,585.45 566.25,583.42 564.99,580.62"/>
    </edge>